MODEL 1
REMARK VINA RESULT:    -6.711      0.000      0.000
REMARK INTER + INTRA:          -8.874
REMARK INTER:                  -8.476
REMARK INTRA:                  -0.398
REMARK UNBOUND:                -0.398
REMARK  Name = 
REMARK  7 active torsions:
REMARK  status: ('A' for Active; 'I' for Inactive)
REMARK    1  A    between atoms: C_1  and  O_2
REMARK    2  A    between atoms: O_2  and  C_3
REMARK    3  A    between atoms: C_4  and  N_5
REMARK    4  A    between atoms: N_5  and  C_6
REMARK    5  A    between atoms: N_5  and  C_7
REMARK    6  A    between atoms: N_5  and  C_8
REMARK    7  A    between atoms: C_12  and  C_13
REMARK                            x       y       z     vdW  Elec       q    Type
REMARK                         _______ _______ _______ _____ _____    ______ ____
ROOT
ATOM      1  C   UNL     1     -11.073   0.984  16.918  0.00  0.00    +0.000 C 
ATOM      2  C   UNL     1      -9.635   1.594  17.313  0.00  0.00    +0.000 C 
ATOM      3  C   UNL     1      -8.717   0.616  18.049  0.00  0.00    +0.000 C 
ATOM      4  C   UNL     1      -9.186  -0.790  17.911  0.00  0.00    +0.000 C 
ATOM      5  O   UNL     1      -9.476  -0.898  16.517  0.00  0.00    +0.000 OA
ATOM      6  C   UNL     1     -10.778  -0.416  16.146  0.00  0.00    +0.000 C 
ATOM      7  N   UNL     1     -11.636  -1.628  16.269  0.00  0.00    +0.000 N 
ATOM      8  C   UNL     1     -11.869  -2.472  15.108  0.00  0.00    +0.000 A 
ATOM      9  C   UNL     1     -12.520  -2.200  13.898  0.00  0.00    +0.000 A 
ATOM     10  C   UNL     1     -12.118  -2.924  12.762  0.00  0.00    +0.000 A 
ATOM     11  C   UNL     1     -11.085  -3.853  12.818  0.00  0.00    +0.000 A 
ATOM     12  C   UNL     1     -10.574  -4.248  14.044  0.00  0.00    +0.000 A 
ATOM     13  C   UNL     1     -11.063  -3.660  15.222  0.00  0.00    +0.000 A 
ATOM     14  C   UNL     1     -10.932  -3.915  16.592  0.00  0.00    +0.000 A 
ATOM     15  C   UNL     1     -10.213  -5.020  17.101  0.00  0.00    +0.000 A 
ATOM     16  C   UNL     1      -9.893  -4.906  18.467  0.00  0.00    +0.000 A 
ATOM     17  C   UNL     1     -10.156  -3.634  18.953  0.00  0.00    +0.000 A 
ATOM     18  C   UNL     1      -9.235  -3.058  19.837  0.00  0.00    +0.000 A 
ATOM     19  C   UNL     1      -8.111  -3.445  20.552  0.00  0.00    +0.000 A 
ATOM     20  C   UNL     1      -8.236  -3.185  21.903  0.00  0.00    +0.000 A 
ATOM     21  C   UNL     1      -9.317  -2.421  22.367  0.00  0.00    +0.000 A 
ATOM     22  C   UNL     1     -10.114  -1.639  21.489  0.00  0.00    +0.000 A 
ATOM     23  C   UNL     1      -9.819  -1.793  20.127  0.00  0.00    +0.000 A 
ATOM     24  N   UNL     1     -10.255  -1.288  18.839  0.00  0.00    +0.000 N 
ATOM     25  C   UNL     1     -10.764  -2.493  18.407  0.00  0.00    +0.000 A 
ATOM     26  C   UNL     1     -11.281  -2.663  17.127  0.00  0.00    +0.000 A 
ATOM     27  C   UNL     1      -9.070  -5.987  18.891  0.00  0.00    +0.000 C 
ATOM     28  O   UNL     1      -8.552  -6.302  19.954  0.00  0.00    +0.000 OA
ATOM     29  N   UNL     1      -8.798  -6.647  17.704  0.00  0.00    +0.000 N 
ATOM     30  C   UNL     1      -9.493  -6.138  16.527  0.00  0.00    +0.000 C 
ATOM     31  H   UNL     1     -11.543   1.690  16.217  0.00  0.00    +0.000 HD
ATOM     32  H   UNL     1      -9.162   1.811  16.346  0.00  0.00    +0.000 HD
ATOM     33  H   UNL     1      -8.483   0.842  19.085  0.00  0.00    +0.000 HD
ATOM     34  H   UNL     1      -7.764   0.660  17.493  0.00  0.00    +0.000 HD
ATOM     35  H   UNL     1      -8.316  -1.434  18.081  0.00  0.00    +0.000 HD
ATOM     36  H   UNL     1     -13.259  -1.413  13.799  0.00  0.00    +0.000 HD
ATOM     37  H   UNL     1     -12.567  -2.708  11.794  0.00  0.00    +0.000 HD
ATOM     38  H   UNL     1     -10.685  -4.304  11.911  0.00  0.00    +0.000 HD
ATOM     39  H   UNL     1      -9.778  -4.981  14.078  0.00  0.00    +0.000 HD
ATOM     40  H   UNL     1      -7.414  -4.194  20.193  0.00  0.00    +0.000 HD
ATOM     41  H   UNL     1      -7.582  -3.729  22.582  0.00  0.00    +0.000 HD
ATOM     42  H   UNL     1      -9.555  -2.491  23.428  0.00  0.00    +0.000 HD
ATOM     43  H   UNL     1     -10.975  -1.091  21.856  0.00  0.00    +0.000 HD
ATOM     44  H   UNL     1      -7.858  -7.016  17.656  0.00  0.00    +0.000 HD
ATOM     45  H   UNL     1      -8.735  -5.806  15.817  0.00  0.00    +0.000 HD
ATOM     46  H   UNL     1     -10.147  -6.914  16.127  0.00  0.00    +0.000 HD
ENDROOT
BRANCH   6  47
ATOM     47  C   UNL     1     -10.562  -0.003  14.660  0.00  0.00    +0.000 C 
ATOM     48  H   UNL     1      -9.924  -0.719  14.127  0.00  0.00    +0.000 HD
ATOM     49  H   UNL     1     -10.131   1.007  14.579  0.00  0.00    +0.000 HD
ATOM     50  H   UNL     1     -11.506   0.062  14.108  0.00  0.00    +0.000 HD
ENDBRANCH   6  47
BRANCH   1  51
ATOM     51  O   UNL     1     -11.931   0.905  18.056  0.00  0.00    +0.000 OA
BRANCH  51  52
ATOM     52  C   UNL     1     -13.113   1.705  17.941  0.00  0.00    +0.000 C 
ATOM     53  H   UNL     1     -13.728   1.300  17.132  0.00  0.00    +0.000 HD
ATOM     54  H   UNL     1     -12.853   2.731  17.674  0.00  0.00    +0.000 HD
ATOM     55  H   UNL     1     -13.711   1.699  18.859  0.00  0.00    +0.000 HD
ENDBRANCH  51  52
ENDBRANCH   1  51
BRANCH   2  56
ATOM     56  N   UNL     1      -9.512   2.994  18.043  0.00  0.00    +0.000 N 
BRANCH  56  57
ATOM     57  C   UNL     1      -9.886   2.918  19.525  0.00  0.00    +0.000 C 
ATOM     58  H   UNL     1     -10.960   3.032  19.641  0.00  0.00    +0.000 HD
ATOM     59  H   UNL     1      -9.366   3.724  20.051  0.00  0.00    +0.000 HD
ATOM     60  H   UNL     1      -9.556   1.957  19.929  0.00  0.00    +0.000 HD
ENDBRANCH  56  57
BRANCH  56  61
ATOM     61  C   UNL     1      -8.034   3.490  17.953  0.00  0.00    +0.000 C 
ATOM     62  H   UNL     1      -7.701   3.415  16.916  0.00  0.00    +0.000 HD
ATOM     63  H   UNL     1      -7.973   4.539  18.261  0.00  0.00    +0.000 HD
ATOM     64  H   UNL     1      -7.425   2.867  18.614  0.00  0.00    +0.000 HD
ENDBRANCH  56  61
BRANCH  56  65
ATOM     65  C   UNL     1     -10.350   4.066  17.359  0.00  0.00    +0.000 C 
ATOM     66  H   UNL     1     -10.534   4.874  18.072  0.00  0.00    +0.000 HD
ATOM     67  H   UNL     1      -9.815   4.424  16.479  0.00  0.00    +0.000 HD
ATOM     68  H   UNL     1     -11.305   3.617  17.062  0.00  0.00    +0.000 HD
ENDBRANCH  56  65
ENDBRANCH   2  56
TORSDOF 7
ENDMDL
MODEL 2
REMARK VINA RESULT:    -6.530      2.869      4.951
REMARK INTER + INTRA:          -8.646
REMARK INTER:                  -8.255
REMARK INTRA:                  -0.391
REMARK UNBOUND:                -0.398
REMARK  Name = 
REMARK  7 active torsions:
REMARK  status: ('A' for Active; 'I' for Inactive)
REMARK    1  A    between atoms: C_1  and  O_2
REMARK    2  A    between atoms: O_2  and  C_3
REMARK    3  A    between atoms: C_4  and  N_5
REMARK    4  A    between atoms: N_5  and  C_6
REMARK    5  A    between atoms: N_5  and  C_7
REMARK    6  A    between atoms: N_5  and  C_8
REMARK    7  A    between atoms: C_12  and  C_13
REMARK                            x       y       z     vdW  Elec       q    Type
REMARK                         _______ _______ _______ _____ _____    ______ ____
ROOT
ATOM      1  C   UNL     1     -11.761   1.796  18.137  0.00  0.00    +0.000 C 
ATOM      2  C   UNL     1     -10.702   3.011  18.170  0.00  0.00    +0.000 C 
ATOM      3  C   UNL     1      -9.919   3.128  19.479  0.00  0.00    +0.000 C 
ATOM      4  C   UNL     1     -10.018   1.887  20.293  0.00  0.00    +0.000 C 
ATOM      5  O   UNL     1      -9.780   0.854  19.336  0.00  0.00    +0.000 OA
ATOM      6  C   UNL     1     -10.942   0.466  18.585  0.00  0.00    +0.000 C 
ATOM      7  N   UNL     1     -11.527  -0.631  19.407  0.00  0.00    +0.000 N 
ATOM      8  C   UNL     1     -11.169  -2.013  19.130  0.00  0.00    +0.000 A 
ATOM      9  C   UNL     1     -11.402  -2.808  18.001  0.00  0.00    +0.000 A 
ATOM     10  C   UNL     1     -10.495  -3.848  17.734  0.00  0.00    +0.000 A 
ATOM     11  C   UNL     1      -9.380  -4.067  18.537  0.00  0.00    +0.000 A 
ATOM     12  C   UNL     1      -9.257  -3.402  19.747  0.00  0.00    +0.000 A 
ATOM     13  C   UNL     1     -10.231  -2.463  20.126  0.00  0.00    +0.000 A 
ATOM     14  C   UNL     1     -10.533  -1.758  21.297  0.00  0.00    +0.000 A 
ATOM     15  C   UNL     1      -9.829  -1.943  22.507  0.00  0.00    +0.000 A 
ATOM     16  C   UNL     1     -10.031  -0.912  23.443  0.00  0.00    +0.000 A 
ATOM     17  C   UNL     1     -10.696   0.169  22.883  0.00  0.00    +0.000 A 
ATOM     18  C   UNL     1     -10.273   1.459  23.227  0.00  0.00    +0.000 A 
ATOM     19  C   UNL     1      -9.412   2.054  24.138  0.00  0.00    +0.000 A 
ATOM     20  C   UNL     1     -10.046   3.008  24.910  0.00  0.00    +0.000 A 
ATOM     21  C   UNL     1     -11.351   3.408  24.588  0.00  0.00    +0.000 A 
ATOM     22  C   UNL     1     -11.936   3.115  23.326  0.00  0.00    +0.000 A 
ATOM     23  C   UNL     1     -11.163   2.292  22.493  0.00  0.00    +0.000 A 
ATOM     24  N   UNL     1     -11.219   1.695  21.173  0.00  0.00    +0.000 N 
ATOM     25  C   UNL     1     -11.294   0.399  21.634  0.00  0.00    +0.000 A 
ATOM     26  C   UNL     1     -11.290  -0.695  20.775  0.00  0.00    +0.000 A 
ATOM     27  C   UNL     1      -9.205  -1.092  24.589  0.00  0.00    +0.000 C 
ATOM     28  O   UNL     1      -9.035  -0.468  25.627  0.00  0.00    +0.000 OA
ATOM     29  N   UNL     1      -8.413  -2.169  24.227  0.00  0.00    +0.000 N 
ATOM     30  C   UNL     1      -8.746  -2.796  22.953  0.00  0.00    +0.000 C 
ATOM     31  H   UNL     1     -12.091   1.683  17.094  0.00  0.00    +0.000 HD
ATOM     32  H   UNL     1      -9.978   2.755  17.385  0.00  0.00    +0.000 HD
ATOM     33  H   UNL     1     -10.108   4.005  20.092  0.00  0.00    +0.000 HD
ATOM     34  H   UNL     1      -8.862   3.185  19.164  0.00  0.00    +0.000 HD
ATOM     35  H   UNL     1      -9.150   1.874  20.962  0.00  0.00    +0.000 HD
ATOM     36  H   UNL     1     -12.204  -2.603  17.300  0.00  0.00    +0.000 HD
ATOM     37  H   UNL     1     -10.616  -4.459  16.841  0.00  0.00    +0.000 HD
ATOM     38  H   UNL     1      -8.610  -4.779  18.247  0.00  0.00    +0.000 HD
ATOM     39  H   UNL     1      -8.392  -3.587  20.371  0.00  0.00    +0.000 HD
ATOM     40  H   UNL     1      -8.499   1.580  24.480  0.00  0.00    +0.000 HD
ATOM     41  H   UNL     1      -9.573   3.291  25.848  0.00  0.00    +0.000 HD
ATOM     42  H   UNL     1     -11.922   3.913  25.366  0.00  0.00    +0.000 HD
ATOM     43  H   UNL     1     -12.962   3.390  23.109  0.00  0.00    +0.000 HD
ATOM     44  H   UNL     1      -7.461  -2.096  24.559  0.00  0.00    +0.000 HD
ATOM     45  H   UNL     1      -7.872  -2.706  22.306  0.00  0.00    +0.000 HD
ATOM     46  H   UNL     1      -9.050  -3.829  23.123  0.00  0.00    +0.000 HD
ENDROOT
BRANCH   6  47
ATOM     47  C   UNL     1     -10.313  -0.068  17.264  0.00  0.00    +0.000 C 
ATOM     48  H   UNL     1      -9.817  -1.035  17.411  0.00  0.00    +0.000 HD
ATOM     49  H   UNL     1      -9.598   0.653  16.837  0.00  0.00    +0.000 HD
ATOM     50  H   UNL     1     -11.061  -0.203  16.476  0.00  0.00    +0.000 HD
ENDBRANCH   6  47
BRANCH   1  51
ATOM     51  O   UNL     1     -12.925   2.105  18.904  0.00  0.00    +0.000 OA
BRANCH  51  52
ATOM     52  C   UNL     1     -14.121   2.192  18.121  0.00  0.00    +0.000 C 
ATOM     53  H   UNL     1     -14.042   3.061  17.462  0.00  0.00    +0.000 HD
ATOM     54  H   UNL     1     -14.987   2.349  18.768  0.00  0.00    +0.000 HD
ATOM     55  H   UNL     1     -14.277   1.305  17.499  0.00  0.00    +0.000 HD
ENDBRANCH  51  52
ENDBRANCH   1  51
BRANCH   2  56
ATOM     56  N   UNL     1     -11.124   4.477  17.742  0.00  0.00    +0.000 N 
BRANCH  56  57
ATOM     57  C   UNL     1     -11.904   5.207  18.837  0.00  0.00    +0.000 C 
ATOM     58  H   UNL     1     -11.235   5.857  19.394  0.00  0.00    +0.000 HD
ATOM     59  H   UNL     1     -12.339   4.458  19.504  0.00  0.00    +0.000 HD
ATOM     60  H   UNL     1     -12.709   5.788  18.378  0.00  0.00    +0.000 HD
ENDBRANCH  56  57
BRANCH  56  61
ATOM     61  C   UNL     1      -9.839   5.311  17.440  0.00  0.00    +0.000 C 
ATOM     62  H   UNL     1      -9.007   4.625  17.270  0.00  0.00    +0.000 HD
ATOM     63  H   UNL     1      -9.986   5.907  16.533  0.00  0.00    +0.000 HD
ATOM     64  H   UNL     1      -9.648   5.965  18.295  0.00  0.00    +0.000 HD
ENDBRANCH  56  61
BRANCH  56  65
ATOM     65  C   UNL     1     -11.931   4.480  16.451  0.00  0.00    +0.000 C 
ATOM     66  H   UNL     1     -12.336   5.484  16.294  0.00  0.00    +0.000 HD
ATOM     67  H   UNL     1     -11.283   4.178  15.628  0.00  0.00    +0.000 HD
ATOM     68  H   UNL     1     -12.757   3.767  16.561  0.00  0.00    +0.000 HD
ENDBRANCH  56  65
ENDBRANCH   2  56
TORSDOF 7
ENDMDL
MODEL 3
REMARK VINA RESULT:    -6.261      1.641      2.016
REMARK INTER + INTRA:          -8.306
REMARK INTER:                  -7.847
REMARK INTRA:                  -0.459
REMARK UNBOUND:                -0.398
REMARK  Name = 
REMARK  7 active torsions:
REMARK  status: ('A' for Active; 'I' for Inactive)
REMARK    1  A    between atoms: C_1  and  O_2
REMARK    2  A    between atoms: O_2  and  C_3
REMARK    3  A    between atoms: C_4  and  N_5
REMARK    4  A    between atoms: N_5  and  C_6
REMARK    5  A    between atoms: N_5  and  C_7
REMARK    6  A    between atoms: N_5  and  C_8
REMARK    7  A    between atoms: C_12  and  C_13
REMARK                            x       y       z     vdW  Elec       q    Type
REMARK                         _______ _______ _______ _____ _____    ______ ____
ROOT
ATOM      1  C   UNL     1     -10.077   1.525  15.047  0.00  0.00    +0.000 C 
ATOM      2  C   UNL     1      -8.496   1.578  15.360  0.00  0.00    +0.000 C 
ATOM      3  C   UNL     1      -7.983   0.411  16.205  0.00  0.00    +0.000 C 
ATOM      4  C   UNL     1      -8.956  -0.715  16.240  0.00  0.00    +0.000 C 
ATOM      5  O   UNL     1      -9.335  -0.856  14.870  0.00  0.00    +0.000 OA
ATOM      6  C   UNL     1     -10.374   0.044  14.449  0.00  0.00    +0.000 C 
ATOM      7  N   UNL     1     -11.620  -0.727  14.721  0.00  0.00    +0.000 N 
ATOM      8  C   UNL     1     -12.214  -1.540  13.672  0.00  0.00    +0.000 A 
ATOM      9  C   UNL     1     -12.773  -1.175  12.440  0.00  0.00    +0.000 A 
ATOM     10  C   UNL     1     -12.732  -2.117  11.398  0.00  0.00    +0.000 A 
ATOM     11  C   UNL     1     -12.128  -3.359  11.562  0.00  0.00    +0.000 A 
ATOM     12  C   UNL     1     -11.744  -3.782  12.825  0.00  0.00    +0.000 A 
ATOM     13  C   UNL     1     -11.914  -2.925  13.926  0.00  0.00    +0.000 A 
ATOM     14  C   UNL     1     -11.821  -3.059  15.316  0.00  0.00    +0.000 A 
ATOM     15  C   UNL     1     -11.551  -4.291  15.952  0.00  0.00    +0.000 A 
ATOM     16  C   UNL     1     -11.144  -4.159  17.292  0.00  0.00    +0.000 A 
ATOM     17  C   UNL     1     -10.880  -2.837  17.622  0.00  0.00    +0.000 A 
ATOM     18  C   UNL     1      -9.766  -2.564  18.426  0.00  0.00    +0.000 A 
ATOM     19  C   UNL     1      -8.838  -3.270  19.178  0.00  0.00    +0.000 A 
ATOM     20  C   UNL     1      -8.788  -2.835  20.488  0.00  0.00    +0.000 A 
ATOM     21  C   UNL     1      -9.474  -1.670  20.861  0.00  0.00    +0.000 A 
ATOM     22  C   UNL     1      -9.957  -0.744  19.898  0.00  0.00    +0.000 A 
ATOM     23  C   UNL     1      -9.811  -1.148  18.563  0.00  0.00    +0.000 A 
ATOM     24  N   UNL     1     -10.087  -0.660  17.225  0.00  0.00    +0.000 N 
ATOM     25  C   UNL     1     -11.036  -1.618  16.944  0.00  0.00    +0.000 A 
ATOM     26  C   UNL     1     -11.642  -1.717  15.696  0.00  0.00    +0.000 A 
ATOM     27  C   UNL     1     -10.772  -5.419  17.840  0.00  0.00    +0.000 C 
ATOM     28  O   UNL     1     -10.360  -5.789  18.931  0.00  0.00    +0.000 OA
ATOM     29  N   UNL     1     -10.831  -6.258  16.741  0.00  0.00    +0.000 N 
ATOM     30  C   UNL     1     -11.339  -5.656  15.514  0.00  0.00    +0.000 C 
ATOM     31  H   UNL     1     -10.277   2.275  14.267  0.00  0.00    +0.000 HD
ATOM     32  H   UNL     1      -8.025   1.489  14.371  0.00  0.00    +0.000 HD
ATOM     33  H   UNL     1      -7.629   0.642  17.205  0.00  0.00    +0.000 HD
ATOM     34  H   UNL     1      -7.113   0.025  15.643  0.00  0.00    +0.000 HD
ATOM     35  H   UNL     1      -8.388  -1.620  16.483  0.00  0.00    +0.000 HD
ATOM     36  H   UNL     1     -13.162  -0.181  12.250  0.00  0.00    +0.000 HD
ATOM     37  H   UNL     1     -13.114  -1.854  10.413  0.00  0.00    +0.000 HD
ATOM     38  H   UNL     1     -11.975  -4.026  10.715  0.00  0.00    +0.000 HD
ATOM     39  H   UNL     1     -11.285  -4.755  12.945  0.00  0.00    +0.000 HD
ATOM     40  H   UNL     1      -8.497  -4.264  18.909  0.00  0.00    +0.000 HD
ATOM     41  H   UNL     1      -8.356  -3.510  21.225  0.00  0.00    +0.000 HD
ATOM     42  H   UNL     1      -9.667  -1.526  21.923  0.00  0.00    +0.000 HD
ATOM     43  H   UNL     1     -10.527   0.128  20.200  0.00  0.00    +0.000 HD
ATOM     44  H   UNL     1     -10.105  -6.962  16.734  0.00  0.00    +0.000 HD
ATOM     45  H   UNL     1     -10.548  -5.719  14.766  0.00  0.00    +0.000 HD
ATOM     46  H   UNL     1     -12.258  -6.161  15.213  0.00  0.00    +0.000 HD
ENDROOT
BRANCH   6  47
ATOM     47  C   UNL     1     -10.092   0.175  12.923  0.00  0.00    +0.000 C 
ATOM     48  H   UNL     1      -9.946   1.221  12.625  0.00  0.00    +0.000 HD
ATOM     49  H   UNL     1     -10.901  -0.270  12.323  0.00  0.00    +0.000 HD
ATOM     50  H   UNL     1      -9.197  -0.377  12.619  0.00  0.00    +0.000 HD
ENDBRANCH   6  47
BRANCH   1  51
ATOM     51  O   UNL     1     -10.842   1.906  16.190  0.00  0.00    +0.000 OA
BRANCH  51  52
ATOM     52  C   UNL     1     -11.951   2.759  15.880  0.00  0.00    +0.000 C 
ATOM     53  H   UNL     1     -12.531   2.295  15.077  0.00  0.00    +0.000 HD
ATOM     54  H   UNL     1     -11.596   3.724  15.514  0.00  0.00    +0.000 HD
ATOM     55  H   UNL     1     -12.615   2.906  16.739  0.00  0.00    +0.000 HD
ENDBRANCH  51  52
ENDBRANCH   1  51
BRANCH   2  56
ATOM     56  N   UNL     1      -7.815   2.896  15.915  0.00  0.00    +0.000 N 
BRANCH  56  57
ATOM     57  C   UNL     1      -7.862   2.983  17.442  0.00  0.00    +0.000 C 
ATOM     58  H   UNL     1      -7.603   2.021  17.873  0.00  0.00    +0.000 HD
ATOM     59  H   UNL     1      -8.877   3.265  17.737  0.00  0.00    +0.000 HD
ATOM     60  H   UNL     1      -7.165   3.755  17.778  0.00  0.00    +0.000 HD
ENDBRANCH  56  57
BRANCH  56  61
ATOM     61  C   UNL     1      -6.314   2.915  15.486  0.00  0.00    +0.000 C 
ATOM     62  H   UNL     1      -6.209   3.547  14.602  0.00  0.00    +0.000 HD
ATOM     63  H   UNL     1      -5.702   3.338  16.289  0.00  0.00    +0.000 HD
ATOM     64  H   UNL     1      -6.005   1.886  15.279  0.00  0.00    +0.000 HD
ENDBRANCH  56  61
BRANCH  56  65
ATOM     65  C   UNL     1      -8.432   4.150  15.312  0.00  0.00    +0.000 C 
ATOM     66  H   UNL     1      -8.138   4.215  14.261  0.00  0.00    +0.000 HD
ATOM     67  H   UNL     1      -9.516   4.098  15.422  0.00  0.00    +0.000 HD
ATOM     68  H   UNL     1      -8.041   5.020  15.854  0.00  0.00    +0.000 HD
ENDBRANCH  56  65
ENDBRANCH   2  56
TORSDOF 7
ENDMDL
MODEL 4
REMARK VINA RESULT:    -6.156      2.776      7.772
REMARK INTER + INTRA:          -8.174
REMARK INTER:                  -7.890
REMARK INTRA:                  -0.284
REMARK UNBOUND:                -0.398
REMARK  Name = 
REMARK  7 active torsions:
REMARK  status: ('A' for Active; 'I' for Inactive)
REMARK    1  A    between atoms: C_1  and  O_2
REMARK    2  A    between atoms: O_2  and  C_3
REMARK    3  A    between atoms: C_4  and  N_5
REMARK    4  A    between atoms: N_5  and  C_6
REMARK    5  A    between atoms: N_5  and  C_7
REMARK    6  A    between atoms: N_5  and  C_8
REMARK    7  A    between atoms: C_12  and  C_13
REMARK                            x       y       z     vdW  Elec       q    Type
REMARK                         _______ _______ _______ _____ _____    ______ ____
ROOT
ATOM      1  C   UNL     1     -10.429  -1.640  18.463  0.00  0.00    +0.000 C 
ATOM      2  C   UNL     1      -9.728  -0.710  17.349  0.00  0.00    +0.000 C 
ATOM      3  C   UNL     1     -10.065   0.777  17.468  0.00  0.00    +0.000 C 
ATOM      4  C   UNL     1     -10.653   1.105  18.795  0.00  0.00    +0.000 C 
ATOM      5  O   UNL     1      -9.785   0.431  19.707  0.00  0.00    +0.000 OA
ATOM      6  C   UNL     1     -10.096  -0.959  19.900  0.00  0.00    +0.000 C 
ATOM      7  N   UNL     1     -11.046  -0.937  21.049  0.00  0.00    +0.000 N 
ATOM      8  C   UNL     1     -10.547  -1.095  22.405  0.00  0.00    +0.000 A 
ATOM      9  C   UNL     1      -9.909  -2.179  23.023  0.00  0.00    +0.000 A 
ATOM     10  C   UNL     1      -9.031  -1.903  24.085  0.00  0.00    +0.000 A 
ATOM     11  C   UNL     1      -8.769  -0.600  24.494  0.00  0.00    +0.000 A 
ATOM     12  C   UNL     1      -9.536   0.447  24.006  0.00  0.00    +0.000 A 
ATOM     13  C   UNL     1     -10.536   0.190  23.054  0.00  0.00    +0.000 A 
ATOM     14  C   UNL     1     -11.586   0.924  22.490  0.00  0.00    +0.000 A 
ATOM     15  C   UNL     1     -11.902   2.242  22.888  0.00  0.00    +0.000 A 
ATOM     16  C   UNL     1     -12.729   2.925  21.978  0.00  0.00    +0.000 A 
ATOM     17  C   UNL     1     -12.865   2.231  20.784  0.00  0.00    +0.000 A 
ATOM     18  C   UNL     1     -12.841   2.959  19.588  0.00  0.00    +0.000 A 
ATOM     19  C   UNL     1     -12.866   4.287  19.187  0.00  0.00    +0.000 A 
ATOM     20  C   UNL     1     -13.891   4.546  18.298  0.00  0.00    +0.000 A 
ATOM     21  C   UNL     1     -14.629   3.482  17.759  0.00  0.00    +0.000 A 
ATOM     22  C   UNL     1     -14.173   2.138  17.836  0.00  0.00    +0.000 A 
ATOM     23  C   UNL     1     -13.011   1.951  18.598  0.00  0.00    +0.000 A 
ATOM     24  N   UNL     1     -12.121   0.881  19.008  0.00  0.00    +0.000 N 
ATOM     25  C   UNL     1     -12.446   0.965  20.344  0.00  0.00    +0.000 A 
ATOM     26  C   UNL     1     -11.813   0.191  21.312  0.00  0.00    +0.000 A 
ATOM     27  C   UNL     1     -12.913   4.280  22.372  0.00  0.00    +0.000 C 
ATOM     28  O   UNL     1     -13.527   5.231  21.906  0.00  0.00    +0.000 OA
ATOM     29  N   UNL     1     -12.051   4.404  23.449  0.00  0.00    +0.000 N 
ATOM     30  C   UNL     1     -11.393   3.174  23.873  0.00  0.00    +0.000 C 
ATOM     31  H   UNL     1      -9.945  -2.627  18.412  0.00  0.00    +0.000 HD
ATOM     32  H   UNL     1      -8.653  -0.812  17.554  0.00  0.00    +0.000 HD
ATOM     33  H   UNL     1     -10.655   1.216  16.668  0.00  0.00    +0.000 HD
ATOM     34  H   UNL     1      -9.084   1.285  17.451  0.00  0.00    +0.000 HD
ATOM     35  H   UNL     1     -10.483   2.175  18.963  0.00  0.00    +0.000 HD
ATOM     36  H   UNL     1     -10.015  -3.197  22.665  0.00  0.00    +0.000 HD
ATOM     37  H   UNL     1      -8.482  -2.714  24.560  0.00  0.00    +0.000 HD
ATOM     38  H   UNL     1      -7.985  -0.386  25.219  0.00  0.00    +0.000 HD
ATOM     39  H   UNL     1      -9.331   1.457  24.339  0.00  0.00    +0.000 HD
ATOM     40  H   UNL     1     -12.423   5.086  19.771  0.00  0.00    +0.000 HD
ATOM     41  H   UNL     1     -14.203   5.582  18.179  0.00  0.00    +0.000 HD
ATOM     42  H   UNL     1     -15.596   3.722  17.319  0.00  0.00    +0.000 HD
ATOM     43  H   UNL     1     -14.778   1.322  17.456  0.00  0.00    +0.000 HD
ATOM     44  H   UNL     1     -11.592   5.304  23.494  0.00  0.00    +0.000 HD
ATOM     45  H   UNL     1     -10.318   3.324  23.766  0.00  0.00    +0.000 HD
ATOM     46  H   UNL     1     -11.694   2.933  24.893  0.00  0.00    +0.000 HD
ENDROOT
BRANCH   6  47
ATOM     47  C   UNL     1      -8.712  -1.550  20.301  0.00  0.00    +0.000 C 
ATOM     48  H   UNL     1      -7.904  -0.819  20.170  0.00  0.00    +0.000 HD
ATOM     49  H   UNL     1      -8.481  -2.462  19.728  0.00  0.00    +0.000 HD
ATOM     50  H   UNL     1      -8.689  -1.876  21.346  0.00  0.00    +0.000 HD
ENDBRANCH   6  47
BRANCH   1  51
ATOM     51  O   UNL     1     -11.811  -1.844  18.170  0.00  0.00    +0.000 OA
BRANCH  51  52
ATOM     52  C   UNL     1     -12.196  -3.224  18.149  0.00  0.00    +0.000 C 
ATOM     53  H   UNL     1     -12.590  -3.489  19.134  0.00  0.00    +0.000 HD
ATOM     54  H   UNL     1     -11.327  -3.857  17.961  0.00  0.00    +0.000 HD
ATOM     55  H   UNL     1     -12.974  -3.427  17.405  0.00  0.00    +0.000 HD
ENDBRANCH  51  52
ENDBRANCH   1  51
BRANCH   2  56
ATOM     56  N   UNL     1      -9.791  -1.086  15.811  0.00  0.00    +0.000 N 
BRANCH  56  57
ATOM     57  C   UNL     1      -9.997  -2.585  15.582  0.00  0.00    +0.000 C 
ATOM     58  H   UNL     1     -10.926  -2.904  16.044  0.00  0.00    +0.000 HD
ATOM     59  H   UNL     1      -9.153  -3.118  16.028  0.00  0.00    +0.000 HD
ATOM     60  H   UNL     1     -10.015  -2.784  14.506  0.00  0.00    +0.000 HD
ENDBRANCH  56  57
BRANCH  56  61
ATOM     61  C   UNL     1     -10.993  -0.338  15.152  0.00  0.00    +0.000 C 
ATOM     62  H   UNL     1     -11.831  -0.333  15.852  0.00  0.00    +0.000 HD
ATOM     63  H   UNL     1     -10.715   0.700  14.939  0.00  0.00    +0.000 HD
ATOM     64  H   UNL     1     -11.251  -0.857  14.225  0.00  0.00    +0.000 HD
ENDBRANCH  56  61
BRANCH  56  65
ATOM     65  C   UNL     1      -8.552  -0.619  15.061  0.00  0.00    +0.000 C 
ATOM     66  H   UNL     1      -7.670  -0.852  15.663  0.00  0.00    +0.000 HD
ATOM     67  H   UNL     1      -8.518  -1.116  14.091  0.00  0.00    +0.000 HD
ATOM     68  H   UNL     1      -8.623   0.467  14.924  0.00  0.00    +0.000 HD
ENDBRANCH  56  65
ENDBRANCH   2  56
TORSDOF 7
ENDMDL
MODEL 5
REMARK VINA RESULT:    -6.111      2.266      5.857
REMARK INTER + INTRA:          -8.117
REMARK INTER:                  -7.713
REMARK INTRA:                  -0.404
REMARK UNBOUND:                -0.398
REMARK  Name = 
REMARK  7 active torsions:
REMARK  status: ('A' for Active; 'I' for Inactive)
REMARK    1  A    between atoms: C_1  and  O_2
REMARK    2  A    between atoms: O_2  and  C_3
REMARK    3  A    between atoms: C_4  and  N_5
REMARK    4  A    between atoms: N_5  and  C_6
REMARK    5  A    between atoms: N_5  and  C_7
REMARK    6  A    between atoms: N_5  and  C_8
REMARK    7  A    between atoms: C_12  and  C_13
REMARK                            x       y       z     vdW  Elec       q    Type
REMARK                         _______ _______ _______ _____ _____    ______ ____
ROOT
ATOM      1  C   UNL     1     -10.877  -3.004  12.698  0.00  0.00    +0.000 C 
ATOM      2  C   UNL     1      -9.810  -1.901  12.204  0.00  0.00    +0.000 C 
ATOM      3  C   UNL     1      -9.550  -0.781  13.213  0.00  0.00    +0.000 C 
ATOM      4  C   UNL     1     -10.036  -1.140  14.573  0.00  0.00    +0.000 C 
ATOM      5  O   UNL     1      -9.548  -2.471  14.748  0.00  0.00    +0.000 OA
ATOM      6  C   UNL     1     -10.385  -3.487  14.169  0.00  0.00    +0.000 C 
ATOM      7  N   UNL     1     -11.312  -3.837  15.281  0.00  0.00    +0.000 N 
ATOM      8  C   UNL     1     -10.989  -4.936  16.177  0.00  0.00    +0.000 A 
ATOM      9  C   UNL     1     -10.857  -6.309  15.927  0.00  0.00    +0.000 A 
ATOM     10  C   UNL     1      -9.999  -7.046  16.762  0.00  0.00    +0.000 A 
ATOM     11  C   UNL     1      -9.274  -6.438  17.782  0.00  0.00    +0.000 A 
ATOM     12  C   UNL     1      -9.547  -5.127  18.139  0.00  0.00    +0.000 A 
ATOM     13  C   UNL     1     -10.516  -4.400  17.426  0.00  0.00    +0.000 A 
ATOM     14  C   UNL     1     -11.166  -3.172  17.598  0.00  0.00    +0.000 A 
ATOM     15  C   UNL     1     -10.967  -2.350  18.729  0.00  0.00    +0.000 A 
ATOM     16  C   UNL     1     -11.414  -1.027  18.553  0.00  0.00    +0.000 A 
ATOM     17  C   UNL     1     -11.743  -0.766  17.231  0.00  0.00    +0.000 A 
ATOM     18  C   UNL     1     -11.373   0.470  16.688  0.00  0.00    +0.000 A 
ATOM     19  C   UNL     1     -10.859   1.680  17.131  0.00  0.00    +0.000 A 
ATOM     20  C   UNL     1     -11.653   2.750  16.768  0.00  0.00    +0.000 A 
ATOM     21  C   UNL     1     -12.716   2.556  15.873  0.00  0.00    +0.000 A 
ATOM     22  C   UNL     1     -12.822   1.382  15.079  0.00  0.00    +0.000 A 
ATOM     23  C   UNL     1     -11.867   0.393  15.355  0.00  0.00    +0.000 A 
ATOM     24  N   UNL     1     -11.485  -0.930  14.900  0.00  0.00    +0.000 N 
ATOM     25  C   UNL     1     -11.825  -1.561  16.076  0.00  0.00    +0.000 A 
ATOM     26  C   UNL     1     -11.595  -2.917  16.284  0.00  0.00    +0.000 A 
ATOM     27  C   UNL     1     -11.078  -0.221  19.677  0.00  0.00    +0.000 C 
ATOM     28  O   UNL     1     -11.249   0.956  19.967  0.00  0.00    +0.000 OA
ATOM     29  N   UNL     1     -10.296  -1.072  20.440  0.00  0.00    +0.000 N 
ATOM     30  C   UNL     1     -10.191  -2.440  19.949  0.00  0.00    +0.000 C 
ATOM     31  H   UNL     1     -10.812  -3.852  11.999  0.00  0.00    +0.000 HD
ATOM     32  H   UNL     1      -8.873  -2.464  12.101  0.00  0.00    +0.000 HD
ATOM     33  H   UNL     1      -9.880   0.218  12.940  0.00  0.00    +0.000 HD
ATOM     34  H   UNL     1      -8.450  -0.738  13.300  0.00  0.00    +0.000 HD
ATOM     35  H   UNL     1      -9.475  -0.525  15.285  0.00  0.00    +0.000 HD
ATOM     36  H   UNL     1     -11.329  -6.794  15.081  0.00  0.00    +0.000 HD
ATOM     37  H   UNL     1      -9.835  -8.105  16.572  0.00  0.00    +0.000 HD
ATOM     38  H   UNL     1      -8.510  -6.985  18.331  0.00  0.00    +0.000 HD
ATOM     39  H   UNL     1      -8.986  -4.665  18.941  0.00  0.00    +0.000 HD
ATOM     40  H   UNL     1     -10.173   1.756  17.967  0.00  0.00    +0.000 HD
ATOM     41  H   UNL     1     -11.532   3.677  17.325  0.00  0.00    +0.000 HD
ATOM     42  H   UNL     1     -13.489   3.323  15.847  0.00  0.00    +0.000 HD
ATOM     43  H   UNL     1     -13.675   1.226  14.427  0.00  0.00    +0.000 HD
ATOM     44  H   UNL     1      -9.527  -0.604  20.901  0.00  0.00    +0.000 HD
ATOM     45  H   UNL     1      -9.137  -2.634  19.741  0.00  0.00    +0.000 HD
ATOM     46  H   UNL     1     -10.617  -3.125  20.684  0.00  0.00    +0.000 HD
ENDROOT
BRANCH   6  47
ATOM     47  C   UNL     1      -9.362  -4.627  13.883  0.00  0.00    +0.000 C 
ATOM     48  H   UNL     1      -9.484  -5.467  14.578  0.00  0.00    +0.000 HD
ATOM     49  H   UNL     1      -8.325  -4.259  13.926  0.00  0.00    +0.000 HD
ATOM     50  H   UNL     1      -9.464  -5.028  12.869  0.00  0.00    +0.000 HD
ENDBRANCH   6  47
BRANCH   1  51
ATOM     51  O   UNL     1     -12.212  -2.505  12.615  0.00  0.00    +0.000 OA
BRANCH  51  52
ATOM     52  C   UNL     1     -13.050  -3.252  11.725  0.00  0.00    +0.000 C 
ATOM     53  H   UNL     1     -13.259  -2.635  10.846  0.00  0.00    +0.000 HD
ATOM     54  H   UNL     1     -14.005  -3.477  12.203  0.00  0.00    +0.000 HD
ATOM     55  H   UNL     1     -12.575  -4.178  11.386  0.00  0.00    +0.000 HD
ENDBRANCH  51  52
ENDBRANCH   1  51
BRANCH   2  56
ATOM     56  N   UNL     1      -9.931  -1.228  10.775  0.00  0.00    +0.000 N 
BRANCH  56  57
ATOM     57  C   UNL     1     -10.921  -0.061  10.757  0.00  0.00    +0.000 C 
ATOM     58  H   UNL     1     -11.701  -0.251  10.027  0.00  0.00    +0.000 HD
ATOM     59  H   UNL     1     -10.374   0.848  10.492  0.00  0.00    +0.000 HD
ATOM     60  H   UNL     1     -11.351   0.060  11.755  0.00  0.00    +0.000 HD
ENDBRANCH  56  57
BRANCH  56  61
ATOM     61  C   UNL     1      -8.535  -0.670  10.353  0.00  0.00    +0.000 C 
ATOM     62  H   UNL     1      -8.368  -0.901   9.299  0.00  0.00    +0.000 HD
ATOM     63  H   UNL     1      -8.516   0.418  10.476  0.00  0.00    +0.000 HD
ATOM     64  H   UNL     1      -7.776  -1.135  10.988  0.00  0.00    +0.000 HD
ENDBRANCH  56  61
BRANCH  56  65
ATOM     65  C   UNL     1     -10.313  -2.238   9.702  0.00  0.00    +0.000 C 
ATOM     66  H   UNL     1      -9.600  -2.159   8.877  0.00  0.00    +0.000 HD
ATOM     67  H   UNL     1     -10.308  -3.237  10.140  0.00  0.00    +0.000 HD
ATOM     68  H   UNL     1     -11.318  -1.991   9.340  0.00  0.00    +0.000 HD
ENDBRANCH  56  65
ENDBRANCH   2  56
TORSDOF 7
ENDMDL
MODEL 6
REMARK VINA RESULT:    -5.922      2.920      6.456
REMARK INTER + INTRA:          -7.878
REMARK INTER:                  -7.833
REMARK INTRA:                  -0.046
REMARK UNBOUND:                -0.398
REMARK  Name = 
REMARK  7 active torsions:
REMARK  status: ('A' for Active; 'I' for Inactive)
REMARK    1  A    between atoms: C_1  and  O_2
REMARK    2  A    between atoms: O_2  and  C_3
REMARK    3  A    between atoms: C_4  and  N_5
REMARK    4  A    between atoms: N_5  and  C_6
REMARK    5  A    between atoms: N_5  and  C_7
REMARK    6  A    between atoms: N_5  and  C_8
REMARK    7  A    between atoms: C_12  and  C_13
REMARK                            x       y       z     vdW  Elec       q    Type
REMARK                         _______ _______ _______ _____ _____    ______ ____
ROOT
ATOM      1  C   UNL     1     -11.585   3.644  21.053  0.00  0.00    +0.000 C 
ATOM      2  C   UNL     1     -13.095   4.075  20.689  0.00  0.00    +0.000 C 
ATOM      3  C   UNL     1     -13.756   3.206  19.617  0.00  0.00    +0.000 C 
ATOM      4  C   UNL     1     -13.020   1.929  19.411  0.00  0.00    +0.000 C 
ATOM      5  O   UNL     1     -12.786   1.473  20.744  0.00  0.00    +0.000 OA
ATOM      6  C   UNL     1     -11.630   2.052  21.372  0.00  0.00    +0.000 C 
ATOM      7  N   UNL     1     -10.539   1.102  21.012  0.00  0.00    +0.000 N 
ATOM      8  C   UNL     1     -10.200   0.012  21.913  0.00  0.00    +0.000 A 
ATOM      9  C   UNL     1      -9.680   0.032  23.214  0.00  0.00    +0.000 A 
ATOM     10  C   UNL     1      -9.986  -1.052  24.057  0.00  0.00    +0.000 A 
ATOM     11  C   UNL     1     -10.805  -2.094  23.635  0.00  0.00    +0.000 A 
ATOM     12  C   UNL     1     -11.161  -2.199  22.300  0.00  0.00    +0.000 A 
ATOM     13  C   UNL     1     -10.741  -1.215  21.390  0.00  0.00    +0.000 A 
ATOM     14  C   UNL     1     -10.747  -1.079  19.996  0.00  0.00    +0.000 A 
ATOM     15  C   UNL     1     -11.199  -2.097  19.128  0.00  0.00    +0.000 A 
ATOM     16  C   UNL     1     -11.464  -1.649  17.821  0.00  0.00    +0.000 A 
ATOM     17  C   UNL     1     -11.440  -0.265  17.735  0.00  0.00    +0.000 A 
ATOM     18  C   UNL     1     -12.412   0.369  16.952  0.00  0.00    +0.000 A 
ATOM     19  C   UNL     1     -13.396   0.012  16.041  0.00  0.00    +0.000 A 
ATOM     20  C   UNL     1     -13.256   0.673  14.835  0.00  0.00    +0.000 A 
ATOM     21  C   UNL     1     -12.330   1.720  14.719  0.00  0.00    +0.000 A 
ATOM     22  C   UNL     1     -11.754   2.342  15.860  0.00  0.00    +0.000 A 
ATOM     23  C   UNL     1     -12.082   1.747  17.087  0.00  0.00    +0.000 A 
ATOM     24  N   UNL     1     -11.825   1.924  18.503  0.00  0.00    +0.000 N 
ATOM     25  C   UNL     1     -11.105   0.757  18.638  0.00  0.00    +0.000 A 
ATOM     26  C   UNL     1     -10.631   0.316  19.870  0.00  0.00    +0.000 A 
ATOM     27  C   UNL     1     -12.028  -2.689  17.029  0.00  0.00    +0.000 C 
ATOM     28  O   UNL     1     -12.415  -2.768  15.871  0.00  0.00    +0.000 OA
ATOM     29  N   UNL     1     -12.221  -3.704  17.951  0.00  0.00    +0.000 N 
ATOM     30  C   UNL     1     -11.705  -3.445  19.290  0.00  0.00    +0.000 C 
ATOM     31  H   UNL     1     -11.306   4.187  21.968  0.00  0.00    +0.000 HD
ATOM     32  H   UNL     1     -13.651   3.912  21.622  0.00  0.00    +0.000 HD
ATOM     33  H   UNL     1     -13.977   3.679  18.664  0.00  0.00    +0.000 HD
ATOM     34  H   UNL     1     -14.726   2.914  20.058  0.00  0.00    +0.000 HD
ATOM     35  H   UNL     1     -13.731   1.217  18.977  0.00  0.00    +0.000 HD
ATOM     36  H   UNL     1      -9.123   0.875  23.606  0.00  0.00    +0.000 HD
ATOM     37  H   UNL     1      -9.640  -1.051  25.089  0.00  0.00    +0.000 HD
ATOM     38  H   UNL     1     -11.151  -2.854  24.334  0.00  0.00    +0.000 HD
ATOM     39  H   UNL     1     -11.789  -3.021  21.979  0.00  0.00    +0.000 HD
ATOM     40  H   UNL     1     -13.943  -0.921  16.101  0.00  0.00    +0.000 HD
ATOM     41  H   UNL     1     -13.750   0.242  13.967  0.00  0.00    +0.000 HD
ATOM     42  H   UNL     1     -12.028   2.006  13.712  0.00  0.00    +0.000 HD
ATOM     43  H   UNL     1     -11.004   3.118  15.753  0.00  0.00    +0.000 HD
ATOM     44  H   UNL     1     -13.068  -4.233  17.794  0.00  0.00    +0.000 HD
ATOM     45  H   UNL     1     -12.551  -3.475  19.979  0.00  0.00    +0.000 HD
ATOM     46  H   UNL     1     -10.929  -4.173  19.529  0.00  0.00    +0.000 HD
ENDROOT
BRANCH   6  47
ATOM     47  C   UNL     1     -12.001   1.966  22.882  0.00  0.00    +0.000 C 
ATOM     48  H   UNL     1     -12.417   0.986  23.144  0.00  0.00    +0.000 HD
ATOM     49  H   UNL     1     -12.712   2.758  23.168  0.00  0.00    +0.000 HD
ATOM     50  H   UNL     1     -11.135   2.135  23.530  0.00  0.00    +0.000 HD
ENDBRANCH   6  47
BRANCH   1  51
ATOM     51  O   UNL     1     -10.671   4.056  20.036  0.00  0.00    +0.000 OA
BRANCH  51  52
ATOM     52  C   UNL     1      -9.360   4.355  20.529  0.00  0.00    +0.000 C 
ATOM     53  H   UNL     1      -9.224   5.441  20.516  0.00  0.00    +0.000 HD
ATOM     54  H   UNL     1      -8.601   3.921  19.877  0.00  0.00    +0.000 HD
ATOM     55  H   UNL     1      -9.213   4.007  21.557  0.00  0.00    +0.000 HD
ENDBRANCH  51  52
ENDBRANCH   1  51
BRANCH   2  56
ATOM     56  N   UNL     1     -13.461   5.582  20.365  0.00  0.00    +0.000 N 
BRANCH  56  57
ATOM     57  C   UNL     1     -14.102   5.747  18.985  0.00  0.00    +0.000 C 
ATOM     58  H   UNL     1     -14.574   6.721  18.913  0.00  0.00    +0.000 HD
ATOM     59  H   UNL     1     -14.849   4.958  18.858  0.00  0.00    +0.000 HD
ATOM     60  H   UNL     1     -13.332   5.636  18.216  0.00  0.00    +0.000 HD
ENDBRANCH  56  57
BRANCH  56  61
ATOM     61  C   UNL     1     -14.483   6.098  21.426  0.00  0.00    +0.000 C 
ATOM     62  H   UNL     1     -15.423   5.555  21.302  0.00  0.00    +0.000 HD
ATOM     63  H   UNL     1     -14.104   5.906  22.434  0.00  0.00    +0.000 HD
ATOM     64  H   UNL     1     -14.621   7.172  21.272  0.00  0.00    +0.000 HD
ENDBRANCH  56  61
BRANCH  56  65
ATOM     65  C   UNL     1     -12.250   6.497  20.479  0.00  0.00    +0.000 C 
ATOM     66  H   UNL     1     -11.447   6.095  19.855  0.00  0.00    +0.000 HD
ATOM     67  H   UNL     1     -12.535   7.501  20.164  0.00  0.00    +0.000 HD
ATOM     68  H   UNL     1     -11.926   6.508  21.526  0.00  0.00    +0.000 HD
ENDBRANCH  56  65
ENDBRANCH   2  56
TORSDOF 7
ENDMDL
MODEL 7
REMARK VINA RESULT:    -5.734      2.503      6.146
REMARK INTER + INTRA:          -7.640
REMARK INTER:                  -7.179
REMARK INTRA:                  -0.461
REMARK UNBOUND:                -0.398
REMARK  Name = 
REMARK  7 active torsions:
REMARK  status: ('A' for Active; 'I' for Inactive)
REMARK    1  A    between atoms: C_1  and  O_2
REMARK    2  A    between atoms: O_2  and  C_3
REMARK    3  A    between atoms: C_4  and  N_5
REMARK    4  A    between atoms: N_5  and  C_6
REMARK    5  A    between atoms: N_5  and  C_7
REMARK    6  A    between atoms: N_5  and  C_8
REMARK    7  A    between atoms: C_12  and  C_13
REMARK                            x       y       z     vdW  Elec       q    Type
REMARK                         _______ _______ _______ _____ _____    ______ ____
ROOT
ATOM      1  C   UNL     1     -11.875   2.635  17.174  0.00  0.00    +0.000 C 
ATOM      2  C   UNL     1     -13.458   2.842  16.950  0.00  0.00    +0.000 C 
ATOM      3  C   UNL     1     -14.078   1.891  15.925  0.00  0.00    +0.000 C 
ATOM      4  C   UNL     1     -13.186   0.735  15.635  0.00  0.00    +0.000 C 
ATOM      5  O   UNL     1     -12.773   0.313  16.935  0.00  0.00    +0.000 OA
ATOM      6  C   UNL     1     -11.661   1.051  17.469  0.00  0.00    +0.000 C 
ATOM      7  N   UNL     1     -10.480   0.272  17.000  0.00  0.00    +0.000 N 
ATOM      8  C   UNL     1      -9.909  -0.761  17.850  0.00  0.00    +0.000 A 
ATOM      9  C   UNL     1      -9.285  -0.671  19.101  0.00  0.00    +0.000 A 
ATOM     10  C   UNL     1      -9.355  -1.790  19.949  0.00  0.00    +0.000 A 
ATOM     11  C   UNL     1     -10.048  -2.939  19.583  0.00  0.00    +0.000 A 
ATOM     12  C   UNL     1     -10.502  -3.090  18.282  0.00  0.00    +0.000 A 
ATOM     13  C   UNL     1     -10.311  -2.052  17.355  0.00  0.00    +0.000 A 
ATOM     14  C   UNL     1     -10.460  -1.912  15.970  0.00  0.00    +0.000 A 
ATOM     15  C   UNL     1     -10.835  -2.982  15.128  0.00  0.00    +0.000 A 
ATOM     16  C   UNL     1     -11.276  -2.573  13.856  0.00  0.00    +0.000 A 
ATOM     17  C   UNL     1     -11.460  -1.199  13.792  0.00  0.00    +0.000 A 
ATOM     18  C   UNL     1     -12.580  -0.711  13.106  0.00  0.00    +0.000 A 
ATOM     19  C   UNL     1     -13.578  -1.203  12.279  0.00  0.00    +0.000 A 
ATOM     20  C   UNL     1     -13.643  -0.525  11.077  0.00  0.00    +0.000 A 
ATOM     21  C   UNL     1     -12.891   0.646  10.898  0.00  0.00    +0.000 A 
ATOM     22  C   UNL     1     -12.313   1.341  11.995  0.00  0.00    +0.000 A 
ATOM     23  C   UNL     1     -12.442   0.700  13.235  0.00  0.00    +0.000 A 
ATOM     24  N   UNL     1     -12.089   0.907  14.627  0.00  0.00    +0.000 N 
ATOM     25  C   UNL     1     -11.198  -0.143  14.679  0.00  0.00    +0.000 A 
ATOM     26  C   UNL     1     -10.559  -0.515  15.857  0.00  0.00    +0.000 A 
ATOM     27  C   UNL     1     -11.752  -3.681  13.099  0.00  0.00    +0.000 C 
ATOM     28  O   UNL     1     -12.225  -3.810  11.978  0.00  0.00    +0.000 OA
ATOM     29  N   UNL     1     -11.714  -4.716  14.018  0.00  0.00    +0.000 N 
ATOM     30  C   UNL     1     -11.125  -4.390  15.311  0.00  0.00    +0.000 C 
ATOM     31  H   UNL     1     -11.597   3.209  18.070  0.00  0.00    +0.000 HD
ATOM     32  H   UNL     1     -13.900   2.596  17.925  0.00  0.00    +0.000 HD
ATOM     33  H   UNL     1     -14.449   2.330  15.003  0.00  0.00    +0.000 HD
ATOM     34  H   UNL     1     -14.953   1.459  16.444  0.00  0.00    +0.000 HD
ATOM     35  H   UNL     1     -13.823  -0.071  15.253  0.00  0.00    +0.000 HD
ATOM     36  H   UNL     1      -8.822   0.243  19.457  0.00  0.00    +0.000 HD
ATOM     37  H   UNL     1      -8.923  -1.743  20.947  0.00  0.00    +0.000 HD
ATOM     38  H   UNL     1     -10.218  -3.744  20.297  0.00  0.00    +0.000 HD
ATOM     39  H   UNL     1     -11.031  -3.993  18.004  0.00  0.00    +0.000 HD
ATOM     40  H   UNL     1     -13.977  -2.207  12.371  0.00  0.00    +0.000 HD
ATOM     41  H   UNL     1     -14.144  -1.019  10.247  0.00  0.00    +0.000 HD
ATOM     42  H   UNL     1     -12.725   0.977   9.873  0.00  0.00    +0.000 HD
ATOM     43  H   UNL     1     -11.696   2.218  11.835  0.00  0.00    +0.000 HD
ATOM     44  H   UNL     1     -12.486  -5.363  13.926  0.00  0.00    +0.000 HD
ATOM     45  H   UNL     1     -11.893  -4.546  16.070  0.00  0.00    +0.000 HD
ATOM     46  H   UNL     1     -10.234  -4.998  15.469  0.00  0.00    +0.000 HD
ENDROOT
BRANCH   6  47
ATOM     47  C   UNL     1     -11.881   0.907  19.004  0.00  0.00    +0.000 C 
ATOM     48  H   UNL     1     -10.973   1.149  19.570  0.00  0.00    +0.000 HD
ATOM     49  H   UNL     1     -12.223  -0.106  19.270  0.00  0.00    +0.000 HD
ATOM     50  H   UNL     1     -12.676   1.565  19.371  0.00  0.00    +0.000 HD
ENDBRANCH   6  47
BRANCH   1  51
ATOM     51  O   UNL     1     -11.124   3.179  16.089  0.00  0.00    +0.000 OA
BRANCH  51  52
ATOM     52  C   UNL     1      -9.952   3.891  16.501  0.00  0.00    +0.000 C 
ATOM     53  H   UNL     1     -10.222   4.550  17.332  0.00  0.00    +0.000 HD
ATOM     54  H   UNL     1      -9.584   4.520  15.689  0.00  0.00    +0.000 HD
ATOM     55  H   UNL     1      -9.157   3.220  16.843  0.00  0.00    +0.000 HD
ENDBRANCH  51  52
ENDBRANCH   1  51
BRANCH   2  56
ATOM     56  N   UNL     1     -14.065   4.281  16.684  0.00  0.00    +0.000 N 
BRANCH  56  57
ATOM     57  C   UNL     1     -13.989   4.687  15.210  0.00  0.00    +0.000 C 
ATOM     58  H   UNL     1     -14.864   4.322  14.682  0.00  0.00    +0.000 HD
ATOM     59  H   UNL     1     -13.083   4.250  14.781  0.00  0.00    +0.000 HD
ATOM     60  H   UNL     1     -13.926   5.777  15.141  0.00  0.00    +0.000 HD
ENDBRANCH  56  57
BRANCH  56  61
ATOM     61  C   UNL     1     -15.570   4.285  17.098  0.00  0.00    +0.000 C 
ATOM     62  H   UNL     1     -15.767   3.406  17.715  0.00  0.00    +0.000 HD
ATOM     63  H   UNL     1     -15.793   5.179  17.688  0.00  0.00    +0.000 HD
ATOM     64  H   UNL     1     -16.175   4.274  16.187  0.00  0.00    +0.000 HD
ENDBRANCH  56  61
BRANCH  56  65
ATOM     65  C   UNL     1     -13.398   5.346  17.543  0.00  0.00    +0.000 C 
ATOM     66  H   UNL     1     -14.165   6.036  17.904  0.00  0.00    +0.000 HD
ATOM     67  H   UNL     1     -12.877   4.859  18.368  0.00  0.00    +0.000 HD
ATOM     68  H   UNL     1     -12.682   5.893  16.917  0.00  0.00    +0.000 HD
ENDBRANCH  56  65
ENDBRANCH   2  56
TORSDOF 7
ENDMDL
MODEL 8
REMARK VINA RESULT:    -5.702      2.979      6.734
REMARK INTER + INTRA:          -7.600
REMARK INTER:                  -7.136
REMARK INTRA:                  -0.465
REMARK UNBOUND:                -0.398
REMARK  Name = 
REMARK  7 active torsions:
REMARK  status: ('A' for Active; 'I' for Inactive)
REMARK    1  A    between atoms: C_1  and  O_2
REMARK    2  A    between atoms: O_2  and  C_3
REMARK    3  A    between atoms: C_4  and  N_5
REMARK    4  A    between atoms: N_5  and  C_6
REMARK    5  A    between atoms: N_5  and  C_7
REMARK    6  A    between atoms: N_5  and  C_8
REMARK    7  A    between atoms: C_12  and  C_13
REMARK                            x       y       z     vdW  Elec       q    Type
REMARK                         _______ _______ _______ _____ _____    ______ ____
ROOT
ATOM      1  C   UNL     1     -13.316   4.394  17.303  0.00  0.00    +0.000 C 
ATOM      2  C   UNL     1     -14.673   3.900  16.585  0.00  0.00    +0.000 C 
ATOM      3  C   UNL     1     -14.774   2.384  16.406  0.00  0.00    +0.000 C 
ATOM      4  C   UNL     1     -13.793   1.661  17.260  0.00  0.00    +0.000 C 
ATOM      5  O   UNL     1     -13.935   2.304  18.528  0.00  0.00    +0.000 OA
ATOM      6  C   UNL     1     -13.175   3.517  18.663  0.00  0.00    +0.000 C 
ATOM      7  N   UNL     1     -11.874   3.042  19.214  0.00  0.00    +0.000 N 
ATOM      8  C   UNL     1     -11.661   3.018  20.652  0.00  0.00    +0.000 A 
ATOM      9  C   UNL     1     -11.613   4.062  21.585  0.00  0.00    +0.000 A 
ATOM     10  C   UNL     1     -11.979   3.771  22.911  0.00  0.00    +0.000 A 
ATOM     11  C   UNL     1     -12.410   2.503  23.287  0.00  0.00    +0.000 A 
ATOM     12  C   UNL     1     -12.279   1.439  22.408  0.00  0.00    +0.000 A 
ATOM     13  C   UNL     1     -11.767   1.660  21.119  0.00  0.00    +0.000 A 
ATOM     14  C   UNL     1     -11.337   0.847  20.064  0.00  0.00    +0.000 A 
ATOM     15  C   UNL     1     -11.285  -0.562  20.154  0.00  0.00    +0.000 A 
ATOM     16  C   UNL     1     -11.179  -1.205  18.907  0.00  0.00    +0.000 A 
ATOM     17  C   UNL     1     -11.379  -0.323  17.854  0.00  0.00    +0.000 A 
ATOM     18  C   UNL     1     -12.135  -0.758  16.759  0.00  0.00    +0.000 A 
ATOM     19  C   UNL     1     -12.681  -1.943  16.287  0.00  0.00    +0.000 A 
ATOM     20  C   UNL     1     -12.273  -2.231  14.999  0.00  0.00    +0.000 A 
ATOM     21  C   UNL     1     -11.565  -1.269  14.263  0.00  0.00    +0.000 A 
ATOM     22  C   UNL     1     -11.522   0.095  14.658  0.00  0.00    +0.000 A 
ATOM     23  C   UNL     1     -12.123   0.372  15.894  0.00  0.00    +0.000 A 
ATOM     24  N   UNL     1     -12.385   1.502  16.766  0.00  0.00    +0.000 N 
ATOM     25  C   UNL     1     -11.552   1.068  17.773  0.00  0.00    +0.000 A 
ATOM     26  C   UNL     1     -11.440   1.742  18.985  0.00  0.00    +0.000 A 
ATOM     27  C   UNL     1     -11.252  -2.619  19.053  0.00  0.00    +0.000 C 
ATOM     28  O   UNL     1     -11.214  -3.562  18.274  0.00  0.00    +0.000 OA
ATOM     29  N   UNL     1     -11.552  -2.771  20.396  0.00  0.00    +0.000 N 
ATOM     30  C   UNL     1     -11.564  -1.543  21.182  0.00  0.00    +0.000 C 
ATOM     31  H   UNL     1     -13.458   5.452  17.569  0.00  0.00    +0.000 HD
ATOM     32  H   UNL     1     -15.467   4.194  17.285  0.00  0.00    +0.000 HD
ATOM     33  H   UNL     1     -14.749   2.003  15.389  0.00  0.00    +0.000 HD
ATOM     34  H   UNL     1     -15.765   2.123  16.817  0.00  0.00    +0.000 HD
ATOM     35  H   UNL     1     -14.180   0.646  17.401  0.00  0.00    +0.000 HD
ATOM     36  H   UNL     1     -11.378   5.083  21.305  0.00  0.00    +0.000 HD
ATOM     37  H   UNL     1     -12.000   4.565  23.655  0.00  0.00    +0.000 HD
ATOM     38  H   UNL     1     -12.824   2.321  24.277  0.00  0.00    +0.000 HD
ATOM     39  H   UNL     1     -12.606   0.453  22.714  0.00  0.00    +0.000 HD
ATOM     40  H   UNL     1     -13.039  -2.728  16.944  0.00  0.00    +0.000 HD
ATOM     41  H   UNL     1     -12.365  -3.261  14.661  0.00  0.00    +0.000 HD
ATOM     42  H   UNL     1     -11.005  -1.620  13.397  0.00  0.00    +0.000 HD
ATOM     43  H   UNL     1     -10.932   0.817  14.104  0.00  0.00    +0.000 HD
ATOM     44  H   UNL     1     -12.189  -3.535  20.581  0.00  0.00    +0.000 HD
ATOM     45  H   UNL     1     -12.569  -1.424  21.589  0.00  0.00    +0.000 HD
ATOM     46  H   UNL     1     -10.792  -1.596  21.951  0.00  0.00    +0.000 HD
ENDROOT
BRANCH   6  47
ATOM     47  C   UNL     1     -14.003   4.304  19.722  0.00  0.00    +0.000 C 
ATOM     48  H   UNL     1     -14.414   3.640  20.493  0.00  0.00    +0.000 HD
ATOM     49  H   UNL     1     -14.820   4.875  19.253  0.00  0.00    +0.000 HD
ATOM     50  H   UNL     1     -13.403   5.062  20.234  0.00  0.00    +0.000 HD
ENDBRANCH   6  47
BRANCH   1  51
ATOM     51  O   UNL     1     -12.208   4.342  16.404  0.00  0.00    +0.000 OA
BRANCH  51  52
ATOM     52  C   UNL     1     -11.363   5.496  16.467  0.00  0.00    +0.000 C 
ATOM     53  H   UNL     1     -11.632   6.074  17.357  0.00  0.00    +0.000 HD
ATOM     54  H   UNL     1     -11.527   6.135  15.598  0.00  0.00    +0.000 HD
ATOM     55  H   UNL     1     -10.303   5.231  16.541  0.00  0.00    +0.000 HD
ENDBRANCH  51  52
ENDBRANCH   1  51
BRANCH   2  56
ATOM     56  N   UNL     1     -15.177   4.567  15.240  0.00  0.00    +0.000 N 
BRANCH  56  57
ATOM     57  C   UNL     1     -14.539   3.940  13.998  0.00  0.00    +0.000 C 
ATOM     58  H   UNL     1     -13.458   3.969  14.085  0.00  0.00    +0.000 HD
ATOM     59  H   UNL     1     -14.860   4.512  13.123  0.00  0.00    +0.000 HD
ATOM     60  H   UNL     1     -14.889   2.909  13.898  0.00  0.00    +0.000 HD
ENDBRANCH  56  57
BRANCH  56  61
ATOM     61  C   UNL     1     -16.723   4.379  15.124  0.00  0.00    +0.000 C 
ATOM     62  H   UNL     1     -17.205   4.925  15.937  0.00  0.00    +0.000 HD
ATOM     63  H   UNL     1     -17.078   4.789  14.173  0.00  0.00    +0.000 HD
ATOM     64  H   UNL     1     -16.941   3.309  15.179  0.00  0.00    +0.000 HD
ENDBRANCH  56  61
BRANCH  56  65
ATOM     65  C   UNL     1     -14.943   6.071  15.230  0.00  0.00    +0.000 C 
ATOM     66  H   UNL     1     -15.239   6.466  14.254  0.00  0.00    +0.000 HD
ATOM     67  H   UNL     1     -15.521   6.524  16.037  0.00  0.00    +0.000 HD
ATOM     68  H   UNL     1     -13.873   6.253  15.387  0.00  0.00    +0.000 HD
ENDBRANCH  56  65
ENDBRANCH   2  56
TORSDOF 7
ENDMDL
MODEL 9
REMARK VINA RESULT:    -5.700      2.410      5.633
REMARK INTER + INTRA:          -7.598
REMARK INTER:                  -7.134
REMARK INTRA:                  -0.463
REMARK UNBOUND:                -0.398
REMARK  Name = 
REMARK  7 active torsions:
REMARK  status: ('A' for Active; 'I' for Inactive)
REMARK    1  A    between atoms: C_1  and  O_2
REMARK    2  A    between atoms: O_2  and  C_3
REMARK    3  A    between atoms: C_4  and  N_5
REMARK    4  A    between atoms: N_5  and  C_6
REMARK    5  A    between atoms: N_5  and  C_7
REMARK    6  A    between atoms: N_5  and  C_8
REMARK    7  A    between atoms: C_12  and  C_13
REMARK                            x       y       z     vdW  Elec       q    Type
REMARK                         _______ _______ _______ _____ _____    ______ ____
ROOT
ATOM      1  C   UNL     1     -12.151   2.340  16.342  0.00  0.00    +0.000 C 
ATOM      2  C   UNL     1     -13.478   2.145  15.447  0.00  0.00    +0.000 C 
ATOM      3  C   UNL     1     -13.668   0.730  14.901  0.00  0.00    +0.000 C 
ATOM      4  C   UNL     1     -12.808  -0.255  15.612  0.00  0.00    +0.000 C 
ATOM      5  O   UNL     1     -13.003   0.079  16.987  0.00  0.00    +0.000 OA
ATOM      6  C   UNL     1     -12.176   1.157  17.456  0.00  0.00    +0.000 C 
ATOM      7  N   UNL     1     -10.957   0.457  17.951  0.00  0.00    +0.000 N 
ATOM      8  C   UNL     1     -10.858   0.075  19.350  0.00  0.00    +0.000 A 
ATOM      9  C   UNL     1     -10.812   0.861  20.510  0.00  0.00    +0.000 A 
ATOM     10  C   UNL     1     -11.298   0.296  21.702  0.00  0.00    +0.000 A 
ATOM     11  C   UNL     1     -11.842  -0.984  21.733  0.00  0.00    +0.000 A 
ATOM     12  C   UNL     1     -11.716  -1.817  20.633  0.00  0.00    +0.000 A 
ATOM     13  C   UNL     1     -11.091  -1.341  19.468  0.00  0.00    +0.000 A 
ATOM     14  C   UNL     1     -10.637  -1.915  18.275  0.00  0.00    +0.000 A 
ATOM     15  C   UNL     1     -10.688  -3.304  18.024  0.00  0.00    +0.000 A 
ATOM     16  C   UNL     1     -10.530  -3.640  16.667  0.00  0.00    +0.000 A 
ATOM     17  C   UNL     1     -10.587  -2.520  15.849  0.00  0.00    +0.000 A 
ATOM     18  C   UNL     1     -11.284  -2.619  14.638  0.00  0.00    +0.000 A 
ATOM     19  C   UNL     1     -11.871  -3.608  13.863  0.00  0.00    +0.000 A 
ATOM     20  C   UNL     1     -11.384  -3.616  12.570  0.00  0.00    +0.000 A 
ATOM     21  C   UNL     1     -10.558  -2.571  12.131  0.00  0.00    +0.000 A 
ATOM     22  C   UNL     1     -10.453  -1.347  12.846  0.00  0.00    +0.000 A 
ATOM     23  C   UNL     1     -11.128  -1.320  14.075  0.00  0.00    +0.000 A 
ATOM     24  N   UNL     1     -11.380  -0.411  15.177  0.00  0.00    +0.000 N 
ATOM     25  C   UNL     1     -10.658  -1.140  16.097  0.00  0.00    +0.000 A 
ATOM     26  C   UNL     1     -10.595  -0.784  17.440  0.00  0.00    +0.000 A 
ATOM     27  C   UNL     1     -10.710  -5.037  16.462  0.00  0.00    +0.000 C 
ATOM     28  O   UNL     1     -10.675  -5.769  15.482  0.00  0.00    +0.000 OA
ATOM     29  N   UNL     1     -11.123  -5.477  17.708  0.00  0.00    +0.000 N 
ATOM     30  C   UNL     1     -11.112  -4.473  18.766  0.00  0.00    +0.000 C 
ATOM     31  H   UNL     1     -12.241   3.312  16.847  0.00  0.00    +0.000 HD
ATOM     32  H   UNL     1     -14.303   2.332  16.149  0.00  0.00    +0.000 HD
ATOM     33  H   UNL     1     -13.591   0.600  13.825  0.00  0.00    +0.000 HD
ATOM     34  H   UNL     1     -14.703   0.463  15.178  0.00  0.00    +0.000 HD
ATOM     35  H   UNL     1     -13.272  -1.239  15.479  0.00  0.00    +0.000 HD
ATOM     36  H   UNL     1     -10.487   1.895  20.499  0.00  0.00    +0.000 HD
ATOM     37  H   UNL     1     -11.322   0.891  22.613  0.00  0.00    +0.000 HD
ATOM     38  H   UNL     1     -12.343  -1.359  22.624  0.00  0.00    +0.000 HD
ATOM     39  H   UNL     1     -12.132  -2.816  20.671  0.00  0.00    +0.000 HD
ATOM     40  H   UNL     1     -12.331  -4.492  14.288  0.00  0.00    +0.000 HD
ATOM     41  H   UNL     1     -11.520  -4.525  11.988  0.00  0.00    +0.000 HD
ATOM     42  H   UNL     1      -9.958  -2.753  11.241  0.00  0.00    +0.000 HD
ATOM     43  H   UNL     1      -9.774  -0.567  12.520  0.00  0.00    +0.000 HD
ATOM     44  H   UNL     1     -11.822  -6.206  17.665  0.00  0.00    +0.000 HD
ATOM     45  H   UNL     1     -12.135  -4.369  19.129  0.00  0.00    +0.000 HD
ATOM     46  H   UNL     1     -10.407  -4.771  19.544  0.00  0.00    +0.000 HD
ENDROOT
BRANCH   6  47
ATOM     47  C   UNL     1     -13.028   1.737  18.623  0.00  0.00    +0.000 C 
ATOM     48  H   UNL     1     -14.057   1.951  18.308  0.00  0.00    +0.000 HD
ATOM     49  H   UNL     1     -12.573   2.649  19.040  0.00  0.00    +0.000 HD
ATOM     50  H   UNL     1     -13.085   1.051  19.474  0.00  0.00    +0.000 HD
ENDBRANCH   6  47
BRANCH   1  51
ATOM     51  O   UNL     1     -10.983   2.408  15.524  0.00  0.00    +0.000 OA
BRANCH  51  52
ATOM     52  C   UNL     1     -10.048   3.409  15.942  0.00  0.00    +0.000 C 
ATOM     53  H   UNL     1     -10.524   4.389  15.850  0.00  0.00    +0.000 HD
ATOM     54  H   UNL     1      -9.172   3.407  15.290  0.00  0.00    +0.000 HD
ATOM     55  H   UNL     1      -9.737   3.278  16.984  0.00  0.00    +0.000 HD
ENDBRANCH  51  52
ENDBRANCH   1  51
BRANCH   2  56
ATOM     56  N   UNL     1     -13.830   3.153  14.276  0.00  0.00    +0.000 N 
BRANCH  56  57
ATOM     57  C   UNL     1     -13.169   2.767  12.952  0.00  0.00    +0.000 C 
ATOM     58  H   UNL     1     -12.263   3.348  12.810  0.00  0.00    +0.000 HD
ATOM     59  H   UNL     1     -13.876   2.973  12.143  0.00  0.00    +0.000 HD
ATOM     60  H   UNL     1     -12.942   1.697  12.963  0.00  0.00    +0.000 HD
ENDBRANCH  56  57
BRANCH  56  61
ATOM     61  C   UNL     1     -15.375   3.154  14.051  0.00  0.00    +0.000 C 
ATOM     62  H   UNL     1     -15.836   3.826  14.778  0.00  0.00    +0.000 HD
ATOM     63  H   UNL     1     -15.605   3.522  13.046  0.00  0.00    +0.000 HD
ATOM     64  H   UNL     1     -15.739   2.130  14.170  0.00  0.00    +0.000 HD
ENDBRANCH  56  61
BRANCH  56  65
ATOM     65  C   UNL     1     -13.464   4.587  14.632  0.00  0.00    +0.000 C 
ATOM     66  H   UNL     1     -14.379   5.130  14.883  0.00  0.00    +0.000 HD
ATOM     67  H   UNL     1     -12.764   4.576  15.468  0.00  0.00    +0.000 HD
ATOM     68  H   UNL     1     -12.994   5.049  13.755  0.00  0.00    +0.000 HD
ENDBRANCH  56  65
ENDBRANCH   2  56
TORSDOF 7
ENDMDL
