MODEL 1
REMARK VINA RESULT:    -9.773      0.000      0.000
REMARK INTER + INTRA:         -10.779
REMARK INTER:                 -10.915
REMARK INTRA:                   0.136
REMARK UNBOUND:                 0.136
REMARK  Name = 
REMARK  2 active torsions:
REMARK  status: ('A' for Active; 'I' for Inactive)
REMARK    1  A    between atoms: S_2  and  C_4
REMARK    2  A    between atoms: S_2  and  N_14
REMARK                            x       y       z     vdW  Elec       q    Type
REMARK                         _______ _______ _______ _____ _____    ______ ____
ROOT
ATOM      1  O   UNL     1      -8.735  -8.223  15.146  0.00  0.00    +0.000 OA
ATOM      2  S   UNL     1      -9.717  -8.421  16.190  0.00  0.00    +0.000 S 
ATOM      3  O   UNL     1     -11.104  -8.674  15.852  0.00  0.00    +0.000 OA
ENDROOT
BRANCH   2   4
ATOM      4  N   UNL     1      -9.700  -7.038  17.234  0.00  0.00    +0.000 NA
ATOM      5  C   UNL     1     -10.465  -5.876  16.680  0.00  0.00    +0.000 C 
ATOM      6  C   UNL     1     -11.098  -5.032  17.778  0.00  0.00    +0.000 C 
ATOM      7  C   UNL     1     -10.158  -4.300  18.736  0.00  0.00    +0.000 C 
ATOM      8  N   UNL     1      -8.739  -4.312  18.392  0.00  0.00    +0.000 NA
ATOM      9  C   UNL     1      -8.142  -5.627  18.672  0.00  0.00    +0.000 C 
ATOM     10  C   UNL     1      -8.276  -6.649  17.534  0.00  0.00    +0.000 C 
ATOM     11  H   UNL     1     -11.291  -6.239  16.060  0.00  0.00    +0.000 HD
ATOM     12  H   UNL     1      -9.832  -5.267  16.024  0.00  0.00    +0.000 HD
ATOM     13  H   UNL     1     -11.783  -5.654  18.367  0.00  0.00    +0.000 HD
ATOM     14  H   UNL     1     -11.723  -4.277  17.284  0.00  0.00    +0.000 HD
ATOM     15  H   UNL     1     -10.308  -4.669  19.759  0.00  0.00    +0.000 HD
ATOM     16  H   UNL     1     -10.476  -3.249  18.772  0.00  0.00    +0.000 HD
ATOM     17  H   UNL     1      -8.270  -3.624  18.983  0.00  0.00    +0.000 HD
ATOM     18  H   UNL     1      -8.521  -6.044  19.613  0.00  0.00    +0.000 HD
ATOM     19  H   UNL     1      -7.068  -5.464  18.827  0.00  0.00    +0.000 HD
ATOM     20  H   UNL     1      -7.722  -7.540  17.853  0.00  0.00    +0.000 HD
ATOM     21  H   UNL     1      -7.795  -6.267  16.625  0.00  0.00    +0.000 HD
ENDBRANCH   2   4
BRANCH   2  22
ATOM     22  C   UNL     1      -9.136  -9.754  17.225  0.00  0.00    +0.000 A 
ATOM     23  C   UNL     1      -8.911  -9.462  18.581  0.00  0.00    +0.000 A 
ATOM     24  C   UNL     1      -8.472 -10.458  19.444  0.00  0.00    +0.000 A 
ATOM     25  C   UNL     1      -8.265 -11.747  18.962  0.00  0.00    +0.000 A 
ATOM     26  C   UNL     1      -8.500 -12.057  17.610  0.00  0.00    +0.000 A 
ATOM     27  C   UNL     1      -8.304 -13.354  17.124  0.00  0.00    +0.000 A 
ATOM     28  N   UNL     1      -8.515 -13.741  15.848  0.00  0.00    +0.000 NA
ATOM     29  C   UNL     1      -8.952 -12.791  15.003  0.00  0.00    +0.000 A 
ATOM     30  C   UNL     1      -9.175 -11.473  15.372  0.00  0.00    +0.000 A 
ATOM     31  C   UNL     1      -8.949 -11.066  16.707  0.00  0.00    +0.000 A 
ATOM     32  H   UNL     1      -9.079  -8.460  18.973  0.00  0.00    +0.000 HD
ATOM     33  H   UNL     1      -8.299 -10.233  20.495  0.00  0.00    +0.000 HD
ATOM     34  H   UNL     1      -7.924 -12.517  19.652  0.00  0.00    +0.000 HD
ATOM     35  H   UNL     1      -7.959 -14.151  17.779  0.00  0.00    +0.000 HD
ATOM     36  H   UNL     1      -9.131 -13.122  13.984  0.00  0.00    +0.000 HD
ATOM     37  H   UNL     1      -9.531 -10.787  14.610  0.00  0.00    +0.000 HD
ENDBRANCH   2  22
TORSDOF 2
ENDMDL
MODEL 2
REMARK VINA RESULT:    -9.343      1.875      3.184
REMARK INTER + INTRA:         -10.300
REMARK INTER:                 -10.078
REMARK INTRA:                  -0.221
REMARK UNBOUND:                 0.136
REMARK  Name = 
REMARK  2 active torsions:
REMARK  status: ('A' for Active; 'I' for Inactive)
REMARK    1  A    between atoms: S_2  and  C_4
REMARK    2  A    between atoms: S_2  and  N_14
REMARK                            x       y       z     vdW  Elec       q    Type
REMARK                         _______ _______ _______ _____ _____    ______ ____
ROOT
ATOM      1  O   UNL     1     -10.385  -7.994  18.749  0.00  0.00    +0.000 OA
ATOM      2  S   UNL     1      -9.431  -7.732  17.694  0.00  0.00    +0.000 S 
ATOM      3  O   UNL     1      -8.084  -7.300  18.016  0.00  0.00    +0.000 OA
ENDROOT
BRANCH   2   4
ATOM      4  N   UNL     1     -10.098  -6.540  16.628  0.00  0.00    +0.000 NA
ATOM      5  C   UNL     1      -9.052  -5.766  15.887  0.00  0.00    +0.000 C 
ATOM      6  C   UNL     1      -9.529  -5.335  14.507  0.00  0.00    +0.000 C 
ATOM      7  C   UNL     1     -10.692  -4.346  14.438  0.00  0.00    +0.000 C 
ATOM      8  N   UNL     1     -11.112  -3.745  15.702  0.00  0.00    +0.000 NA
ATOM      9  C   UNL     1     -11.865  -4.711  16.518  0.00  0.00    +0.000 C 
ATOM     10  C   UNL     1     -11.000  -5.617  17.404  0.00  0.00    +0.000 C 
ATOM     11  H   UNL     1      -8.171  -6.396  15.723  0.00  0.00    +0.000 HD
ATOM     12  H   UNL     1      -8.710  -4.907  16.476  0.00  0.00    +0.000 HD
ATOM     13  H   UNL     1      -9.790  -6.223  13.918  0.00  0.00    +0.000 HD
ATOM     14  H   UNL     1      -8.671  -4.876  13.998  0.00  0.00    +0.000 HD
ATOM     15  H   UNL     1     -11.548  -4.811  13.933  0.00  0.00    +0.000 HD
ATOM     16  H   UNL     1     -10.390  -3.526  13.773  0.00  0.00    +0.000 HD
ATOM     17  H   UNL     1     -11.734  -2.966  15.485  0.00  0.00    +0.000 HD
ATOM     18  H   UNL     1     -12.544  -5.310  15.898  0.00  0.00    +0.000 HD
ATOM     19  H   UNL     1     -12.507  -4.128  17.190  0.00  0.00    +0.000 HD
ATOM     20  H   UNL     1     -11.696  -6.217  18.003  0.00  0.00    +0.000 HD
ATOM     21  H   UNL     1     -10.405  -5.010  18.097  0.00  0.00    +0.000 HD
ENDBRANCH   2   4
BRANCH   2  22
ATOM     22  C   UNL     1      -9.326  -9.204  16.690  0.00  0.00    +0.000 A 
ATOM     23  C   UNL     1      -9.628  -9.071  15.324  0.00  0.00    +0.000 A 
ATOM     24  C   UNL     1      -9.553 -10.175  14.484  0.00  0.00    +0.000 A 
ATOM     25  C   UNL     1      -9.169 -11.409  14.999  0.00  0.00    +0.000 A 
ATOM     26  C   UNL     1      -8.849 -11.553  16.361  0.00  0.00    +0.000 A 
ATOM     27  C   UNL     1      -8.451 -12.790  16.880  0.00  0.00    +0.000 A 
ATOM     28  N   UNL     1      -8.117 -13.015  18.169  0.00  0.00    +0.000 NA
ATOM     29  C   UNL     1      -8.172 -11.954  18.993  0.00  0.00    +0.000 A 
ATOM     30  C   UNL     1      -8.559 -10.685  18.590  0.00  0.00    +0.000 A 
ATOM     31  C   UNL     1      -8.914 -10.449  17.241  0.00  0.00    +0.000 A 
ATOM     32  H   UNL     1      -9.920  -8.109  14.906  0.00  0.00    +0.000 HD
ATOM     33  H   UNL     1      -9.785 -10.072  13.426  0.00  0.00    +0.000 HD
ATOM     34  H   UNL     1      -9.110 -12.263  14.326  0.00  0.00    +0.000 HD
ATOM     35  H   UNL     1      -8.385 -13.669  16.243  0.00  0.00    +0.000 HD
ATOM     36  H   UNL     1      -7.887 -12.149  20.022  0.00  0.00    +0.000 HD
ATOM     37  H   UNL     1      -8.566  -9.897  19.336  0.00  0.00    +0.000 HD
ENDBRANCH   2  22
TORSDOF 2
ENDMDL
MODEL 3
REMARK VINA RESULT:    -9.285      2.172      2.811
REMARK INTER + INTRA:         -10.235
REMARK INTER:                 -10.359
REMARK INTRA:                   0.125
REMARK UNBOUND:                 0.136
REMARK  Name = 
REMARK  2 active torsions:
REMARK  status: ('A' for Active; 'I' for Inactive)
REMARK    1  A    between atoms: S_2  and  C_4
REMARK    2  A    between atoms: S_2  and  N_14
REMARK                            x       y       z     vdW  Elec       q    Type
REMARK                         _______ _______ _______ _____ _____    ______ ____
ROOT
ATOM      1  O   UNL     1      -8.854  -6.371  16.791  0.00  0.00    +0.000 OA
ATOM      2  S   UNL     1      -9.123  -6.737  18.165  0.00  0.00    +0.000 S 
ATOM      3  O   UNL     1     -10.396  -6.407  18.774  0.00  0.00    +0.000 OA
ENDROOT
BRANCH   2   4
ATOM      4  N   UNL     1      -7.892  -6.048  19.172  0.00  0.00    +0.000 NA
ATOM      5  C   UNL     1      -8.205  -4.650  19.606  0.00  0.00    +0.000 C 
ATOM      6  C   UNL     1      -7.636  -4.338  20.983  0.00  0.00    +0.000 C 
ATOM      7  C   UNL     1      -6.114  -4.329  21.133  0.00  0.00    +0.000 C 
ATOM      8  N   UNL     1      -5.338  -4.421  19.899  0.00  0.00    +0.000 NA
ATOM      9  C   UNL     1      -5.366  -5.792  19.363  0.00  0.00    +0.000 C 
ATOM     10  C   UNL     1      -6.567  -6.104  18.459  0.00  0.00    +0.000 C 
ATOM     11  H   UNL     1      -9.290  -4.522  19.688  0.00  0.00    +0.000 HD
ATOM     12  H   UNL     1      -7.866  -3.922  18.860  0.00  0.00    +0.000 HD
ATOM     13  H   UNL     1      -8.055  -5.035  21.719  0.00  0.00    +0.000 HD
ATOM     14  H   UNL     1      -8.003  -3.342  21.266  0.00  0.00    +0.000 HD
ATOM     15  H   UNL     1      -5.805  -5.109  21.839  0.00  0.00    +0.000 HD
ATOM     16  H   UNL     1      -5.836  -3.386  21.622  0.00  0.00    +0.000 HD
ATOM     17  H   UNL     1      -4.369  -4.193  20.122  0.00  0.00    +0.000 HD
ATOM     18  H   UNL     1      -5.283  -6.534  20.166  0.00  0.00    +0.000 HD
ATOM     19  H   UNL     1      -4.466  -5.912  18.748  0.00  0.00    +0.000 HD
ATOM     20  H   UNL     1      -6.408  -7.120  18.077  0.00  0.00    +0.000 HD
ATOM     21  H   UNL     1      -6.577  -5.425  17.598  0.00  0.00    +0.000 HD
ENDBRANCH   2   4
BRANCH   2  22
ATOM     22  C   UNL     1      -8.868  -8.497  18.309  0.00  0.00    +0.000 A 
ATOM     23  C   UNL     1      -8.522  -8.993  19.578  0.00  0.00    +0.000 A 
ATOM     24  C   UNL     1      -8.323 -10.356  19.762  0.00  0.00    +0.000 A 
ATOM     25  C   UNL     1      -8.476 -11.227  18.687  0.00  0.00    +0.000 A 
ATOM     26  C   UNL     1      -8.835 -10.746  17.415  0.00  0.00    +0.000 A 
ATOM     27  C   UNL     1      -9.001 -11.620  16.335  0.00  0.00    +0.000 A 
ATOM     28  N   UNL     1      -9.354 -11.247  15.087  0.00  0.00    +0.000 NA
ATOM     29  C   UNL     1      -9.563  -9.933  14.895  0.00  0.00    +0.000 A 
ATOM     30  C   UNL     1      -9.422  -8.976  15.889  0.00  0.00    +0.000 A 
ATOM     31  C   UNL     1      -9.047  -9.365  17.196  0.00  0.00    +0.000 A 
ATOM     32  H   UNL     1      -8.410  -8.324  20.429  0.00  0.00    +0.000 HD
ATOM     33  H   UNL     1      -8.058 -10.741  20.745  0.00  0.00    +0.000 HD
ATOM     34  H   UNL     1      -8.320 -12.292  18.850  0.00  0.00    +0.000 HD
ATOM     35  H   UNL     1      -8.849 -12.690  16.454  0.00  0.00    +0.000 HD
ATOM     36  H   UNL     1      -9.860  -9.651  13.889  0.00  0.00    +0.000 HD
ATOM     37  H   UNL     1      -9.618  -7.941  15.628  0.00  0.00    +0.000 HD
ENDBRANCH   2  22
TORSDOF 2
ENDMDL
MODEL 4
REMARK VINA RESULT:    -8.993      1.600      2.816
REMARK INTER + INTRA:          -9.908
REMARK INTER:                  -9.770
REMARK INTRA:                  -0.137
REMARK UNBOUND:                 0.136
REMARK  Name = 
REMARK  2 active torsions:
REMARK  status: ('A' for Active; 'I' for Inactive)
REMARK    1  A    between atoms: S_2  and  C_4
REMARK    2  A    between atoms: S_2  and  N_14
REMARK                            x       y       z     vdW  Elec       q    Type
REMARK                         _______ _______ _______ _____ _____    ______ ____
ROOT
ATOM      1  O   UNL     1     -10.167  -7.069  15.450  0.00  0.00    +0.000 OA
ATOM      2  S   UNL     1     -10.149  -7.939  16.606  0.00  0.00    +0.000 S 
ATOM      3  O   UNL     1     -11.340  -8.103  17.416  0.00  0.00    +0.000 OA
ENDROOT
BRANCH   2   4
ATOM      4  N   UNL     1      -8.886  -7.417  17.671  0.00  0.00    +0.000 NA
ATOM      5  C   UNL     1      -9.399  -6.691  18.876  0.00  0.00    +0.000 C 
ATOM      6  C   UNL     1      -8.514  -6.910  20.096  0.00  0.00    +0.000 C 
ATOM      7  C   UNL     1      -7.088  -6.362  20.041  0.00  0.00    +0.000 C 
ATOM      8  N   UNL     1      -6.765  -5.501  18.906  0.00  0.00    +0.000 NA
ATOM      9  C   UNL     1      -6.602  -6.293  17.677  0.00  0.00    +0.000 C 
ATOM     10  C   UNL     1      -7.903  -6.567  16.910  0.00  0.00    +0.000 C 
ATOM     11  H   UNL     1     -10.389  -7.074  19.145  0.00  0.00    +0.000 HD
ATOM     12  H   UNL     1      -9.529  -5.623  18.665  0.00  0.00    +0.000 HD
ATOM     13  H   UNL     1      -8.468  -7.982  20.326  0.00  0.00    +0.000 HD
ATOM     14  H   UNL     1      -9.019  -6.439  20.950  0.00  0.00    +0.000 HD
ATOM     15  H   UNL     1      -6.368  -7.187  20.113  0.00  0.00    +0.000 HD
ATOM     16  H   UNL     1      -6.926  -5.772  20.953  0.00  0.00    +0.000 HD
ATOM     17  H   UNL     1      -5.873  -5.046  19.105  0.00  0.00    +0.000 HD
ATOM     18  H   UNL     1      -6.066  -7.230  17.875  0.00  0.00    +0.000 HD
ATOM     19  H   UNL     1      -5.955  -5.713  17.007  0.00  0.00    +0.000 HD
ATOM     20  H   UNL     1      -7.615  -7.089  15.991  0.00  0.00    +0.000 HD
ATOM     21  H   UNL     1      -8.376  -5.620  16.620  0.00  0.00    +0.000 HD
ENDBRANCH   2   4
BRANCH   2  22
ATOM     22  C   UNL     1      -9.616  -9.550  16.055  0.00  0.00    +0.000 A 
ATOM     23  C   UNL     1      -9.669  -9.806  14.674  0.00  0.00    +0.000 A 
ATOM     24  C   UNL     1      -9.255 -11.036  14.177  0.00  0.00    +0.000 A 
ATOM     25  C   UNL     1      -8.780 -12.008  15.051  0.00  0.00    +0.000 A 
ATOM     26  C   UNL     1      -8.708 -11.761  16.434  0.00  0.00    +0.000 A 
ATOM     27  C   UNL     1      -8.220 -12.732  17.315  0.00  0.00    +0.000 A 
ATOM     28  N   UNL     1      -8.105 -12.576  18.651  0.00  0.00    +0.000 NA
ATOM     29  C   UNL     1      -8.490 -11.386  19.146  0.00  0.00    +0.000 A 
ATOM     30  C   UNL     1      -8.995 -10.354  18.370  0.00  0.00    +0.000 A 
ATOM     31  C   UNL     1      -9.119 -10.519  16.970  0.00  0.00    +0.000 A 
ATOM     32  H   UNL     1     -10.029  -9.050  13.978  0.00  0.00    +0.000 HD
ATOM     33  H   UNL     1      -9.295 -11.234  13.108  0.00  0.00    +0.000 HD
ATOM     34  H   UNL     1      -8.456 -12.965  14.645  0.00  0.00    +0.000 HD
ATOM     35  H   UNL     1      -7.891 -13.703  16.951  0.00  0.00    +0.000 HD
ATOM     36  H   UNL     1      -8.378 -11.272  20.221  0.00  0.00    +0.000 HD
ATOM     37  H   UNL     1      -9.273  -9.433  18.871  0.00  0.00    +0.000 HD
ENDBRANCH   2  22
TORSDOF 2
ENDMDL
MODEL 5
REMARK VINA RESULT:    -8.633      1.350      1.546
REMARK INTER + INTRA:          -9.506
REMARK INTER:                  -9.490
REMARK INTRA:                  -0.016
REMARK UNBOUND:                 0.136
REMARK  Name = 
REMARK  2 active torsions:
REMARK  status: ('A' for Active; 'I' for Inactive)
REMARK    1  A    between atoms: S_2  and  C_4
REMARK    2  A    between atoms: S_2  and  N_14
REMARK                            x       y       z     vdW  Elec       q    Type
REMARK                         _______ _______ _______ _____ _____    ______ ____
ROOT
ATOM      1  O   UNL     1      -8.848  -8.642  14.897  0.00  0.00    +0.000 OA
ATOM      2  S   UNL     1      -9.860  -8.578  15.929  0.00  0.00    +0.000 S 
ATOM      3  O   UNL     1     -11.204  -9.055  15.666  0.00  0.00    +0.000 OA
ENDROOT
BRANCH   2   4
ATOM      4  N   UNL     1     -10.007  -6.934  16.458  0.00  0.00    +0.000 NA
ATOM      5  C   UNL     1     -11.225  -6.695  17.296  0.00  0.00    +0.000 C 
ATOM      6  C   UNL     1     -10.998  -5.609  18.339  0.00  0.00    +0.000 C 
ATOM      7  C   UNL     1     -10.738  -4.189  17.835  0.00  0.00    +0.000 C 
ATOM      8  N   UNL     1     -10.931  -3.960  16.406  0.00  0.00    +0.000 NA
ATOM      9  C   UNL     1      -9.821  -4.534  15.628  0.00  0.00    +0.000 C 
ATOM     10  C   UNL     1      -9.989  -6.016  15.264  0.00  0.00    +0.000 C 
ATOM     11  H   UNL     1     -11.476  -7.604  17.852  0.00  0.00    +0.000 HD
ATOM     12  H   UNL     1     -12.095  -6.469  16.668  0.00  0.00    +0.000 HD
ATOM     13  H   UNL     1     -10.171  -5.903  18.998  0.00  0.00    +0.000 HD
ATOM     14  H   UNL     1     -11.894  -5.578  18.973  0.00  0.00    +0.000 HD
ATOM     15  H   UNL     1      -9.738  -3.861  18.145  0.00  0.00    +0.000 HD
ATOM     16  H   UNL     1     -11.426  -3.519  18.368  0.00  0.00    +0.000 HD
ATOM     17  H   UNL     1     -10.933  -2.952  16.249  0.00  0.00    +0.000 HD
ATOM     18  H   UNL     1      -8.858  -4.365  16.126  0.00  0.00    +0.000 HD
ATOM     19  H   UNL     1      -9.773  -3.979  14.683  0.00  0.00    +0.000 HD
ATOM     20  H   UNL     1      -9.135  -6.275  14.627  0.00  0.00    +0.000 HD
ATOM     21  H   UNL     1     -10.901  -6.157  14.671  0.00  0.00    +0.000 HD
ENDBRANCH   2   4
BRANCH   2  22
ATOM     22  C   UNL     1      -9.225  -9.439  17.357  0.00  0.00    +0.000 A 
ATOM     23  C   UNL     1      -9.093  -8.700  18.545  0.00  0.00    +0.000 A 
ATOM     24  C   UNL     1      -8.617  -9.314  19.697  0.00  0.00    +0.000 A 
ATOM     25  C   UNL     1      -8.280 -10.663  19.671  0.00  0.00    +0.000 A 
ATOM     26  C   UNL     1      -8.419 -11.418  18.492  0.00  0.00    +0.000 A 
ATOM     27  C   UNL     1      -8.092 -12.778  18.465  0.00  0.00    +0.000 A 
ATOM     28  N   UNL     1      -8.206 -13.578  17.384  0.00  0.00    +0.000 NA
ATOM     29  C   UNL     1      -8.677 -13.003  16.264  0.00  0.00    +0.000 A 
ATOM     30  C   UNL     1      -9.026 -11.664  16.173  0.00  0.00    +0.000 A 
ATOM     31  C   UNL     1      -8.903 -10.823  17.304  0.00  0.00    +0.000 A 
ATOM     32  H   UNL     1      -9.364  -7.646  18.582  0.00  0.00    +0.000 HD
ATOM     33  H   UNL     1      -8.517  -8.743  20.618  0.00  0.00    +0.000 HD
ATOM     34  H   UNL     1      -7.912 -11.130  20.584  0.00  0.00    +0.000 HD
ATOM     35  H   UNL     1      -7.717 -13.281  19.353  0.00  0.00    +0.000 HD
ATOM     36  H   UNL     1      -8.775 -13.663  15.407  0.00  0.00    +0.000 HD
ATOM     37  H   UNL     1      -9.399 -11.301  15.221  0.00  0.00    +0.000 HD
ENDBRANCH   2  22
TORSDOF 2
ENDMDL
MODEL 6
REMARK VINA RESULT:    -8.452      1.566      2.003
REMARK INTER + INTRA:          -9.304
REMARK INTER:                  -9.466
REMARK INTRA:                   0.162
REMARK UNBOUND:                 0.136
REMARK  Name = 
REMARK  2 active torsions:
REMARK  status: ('A' for Active; 'I' for Inactive)
REMARK    1  A    between atoms: S_2  and  C_4
REMARK    2  A    between atoms: S_2  and  N_14
REMARK                            x       y       z     vdW  Elec       q    Type
REMARK                         _______ _______ _______ _____ _____    ______ ____
ROOT
ATOM      1  O   UNL     1      -9.055  -6.372  16.123  0.00  0.00    +0.000 OA
ATOM      2  S   UNL     1     -10.057  -6.662  17.126  0.00  0.00    +0.000 S 
ATOM      3  O   UNL     1     -11.421  -6.955  16.734  0.00  0.00    +0.000 OA
ENDROOT
BRANCH   2   4
ATOM      4  N   UNL     1     -10.129  -5.333  18.236  0.00  0.00    +0.000 NA
ATOM      5  C   UNL     1     -10.930  -4.179  17.717  0.00  0.00    +0.000 C 
ATOM      6  C   UNL     1     -11.629  -3.419  18.836  0.00  0.00    +0.000 C 
ATOM      7  C   UNL     1     -10.749  -2.695  19.855  0.00  0.00    +0.000 C 
ATOM      8  N   UNL     1      -9.322  -2.628  19.552  0.00  0.00    +0.000 NA
ATOM      9  C   UNL     1      -8.674  -3.929  19.784  0.00  0.00    +0.000 C 
ATOM     10  C   UNL     1      -8.732  -4.898  18.595  0.00  0.00    +0.000 C 
ATOM     11  H   UNL     1     -11.723  -4.546  17.056  0.00  0.00    +0.000 HD
ATOM     12  H   UNL     1     -10.308  -3.512  17.109  0.00  0.00    +0.000 HD
ATOM     13  H   UNL     1     -12.301  -4.098  19.375  0.00  0.00    +0.000 HD
ATOM     14  H   UNL     1     -12.274  -2.667  18.361  0.00  0.00    +0.000 HD
ATOM     15  H   UNL     1     -10.908  -3.120  20.854  0.00  0.00    +0.000 HD
ATOM     16  H   UNL     1     -11.113  -1.662  19.932  0.00  0.00    +0.000 HD
ATOM     17  H   UNL     1      -8.899  -1.951  20.188  0.00  0.00    +0.000 HD
ATOM     18  H   UNL     1      -9.059  -4.408  20.693  0.00  0.00    +0.000 HD
ATOM     19  H   UNL     1      -7.613  -3.728  19.978  0.00  0.00    +0.000 HD
ATOM     20  H   UNL     1      -8.147  -5.779  18.886  0.00  0.00    +0.000 HD
ATOM     21  H   UNL     1      -8.245  -4.451  17.720  0.00  0.00    +0.000 HD
ENDBRANCH   2   4
BRANCH   2  22
ATOM     22  C   UNL     1      -9.449  -8.019  18.112  0.00  0.00    +0.000 A 
ATOM     23  C   UNL     1      -9.227  -7.771  19.478  0.00  0.00    +0.000 A 
ATOM     24  C   UNL     1      -8.768  -8.789  20.305  0.00  0.00    +0.000 A 
ATOM     25  C   UNL     1      -8.536 -10.055  19.777  0.00  0.00    +0.000 A 
ATOM     26  C   UNL     1      -8.767 -10.322  18.415  0.00  0.00    +0.000 A 
ATOM     27  C   UNL     1      -8.547 -11.596  17.883  0.00  0.00    +0.000 A 
ATOM     28  N   UNL     1      -8.753 -11.942  16.594  0.00  0.00    +0.000 NA
ATOM     29  C   UNL     1      -9.210 -10.972  15.784  0.00  0.00    +0.000 A 
ATOM     30  C   UNL     1      -9.457  -9.672  16.200  0.00  0.00    +0.000 A 
ATOM     31  C   UNL     1      -9.237  -9.308  17.549  0.00  0.00    +0.000 A 
ATOM     32  H   UNL     1      -9.414  -6.787  19.906  0.00  0.00    +0.000 HD
ATOM     33  H   UNL     1      -8.597  -8.598  21.362  0.00  0.00    +0.000 HD
ATOM     34  H   UNL     1      -8.180 -10.843  20.439  0.00  0.00    +0.000 HD
ATOM     35  H   UNL     1      -8.187 -12.409  18.509  0.00  0.00    +0.000 HD
ATOM     36  H   UNL     1      -9.384 -11.270  14.754  0.00  0.00    +0.000 HD
ATOM     37  H   UNL     1      -9.828  -8.967  15.463  0.00  0.00    +0.000 HD
ENDBRANCH   2  22
TORSDOF 2
ENDMDL
MODEL 7
REMARK VINA RESULT:    -7.869      1.603      6.550
REMARK INTER + INTRA:          -8.653
REMARK INTER:                  -9.172
REMARK INTRA:                   0.519
REMARK UNBOUND:                 0.136
REMARK  Name = 
REMARK  2 active torsions:
REMARK  status: ('A' for Active; 'I' for Inactive)
REMARK    1  A    between atoms: S_2  and  C_4
REMARK    2  A    between atoms: S_2  and  N_14
REMARK                            x       y       z     vdW  Elec       q    Type
REMARK                         _______ _______ _______ _____ _____    ______ ____
ROOT
ATOM      1  O   UNL     1     -11.287  -7.397  17.635  0.00  0.00    +0.000 OA
ATOM      2  S   UNL     1      -9.929  -7.395  17.136  0.00  0.00    +0.000 S 
ATOM      3  O   UNL     1      -9.648  -6.959  15.782  0.00  0.00    +0.000 OA
ENDROOT
BRANCH   2   4
ATOM      4  N   UNL     1      -9.281  -8.995  17.291  0.00  0.00    +0.000 NA
ATOM      5  C   UNL     1     -10.023 -10.009  16.477  0.00  0.00    +0.000 C 
ATOM      6  C   UNL     1      -9.112 -11.128  15.988  0.00  0.00    +0.000 C 
ATOM      7  C   UNL     1      -8.485 -12.039  17.042  0.00  0.00    +0.000 C 
ATOM      8  N   UNL     1      -8.972 -11.885  18.410  0.00  0.00    +0.000 NA
ATOM      9  C   UNL     1      -8.436 -10.659  19.024  0.00  0.00    +0.000 C 
ATOM     10  C   UNL     1      -9.253  -9.390  18.744  0.00  0.00    +0.000 C 
ATOM     11  H   UNL     1     -10.433  -9.535  15.579  0.00  0.00    +0.000 HD
ATOM     12  H   UNL     1     -10.880 -10.408  17.033  0.00  0.00    +0.000 HD
ATOM     13  H   UNL     1      -8.311 -10.702  15.371  0.00  0.00    +0.000 HD
ATOM     14  H   UNL     1      -9.709 -11.759  15.316  0.00  0.00    +0.000 HD
ATOM     15  H   UNL     1      -7.391 -11.947  17.012  0.00  0.00    +0.000 HD
ATOM     16  H   UNL     1      -8.682 -13.077  16.742  0.00  0.00    +0.000 HD
ATOM     17  H   UNL     1      -8.634 -12.680  18.954  0.00  0.00    +0.000 HD
ATOM     18  H   UNL     1      -7.383 -10.508  18.755  0.00  0.00    +0.000 HD
ATOM     19  H   UNL     1      -8.449 -10.813  20.109  0.00  0.00    +0.000 HD
ATOM     20  H   UNL     1      -8.782  -8.587  19.324  0.00  0.00    +0.000 HD
ATOM     21  H   UNL     1     -10.277  -9.511  19.117  0.00  0.00    +0.000 HD
ENDBRANCH   2   4
BRANCH   2  22
ATOM     22  C   UNL     1      -8.946  -6.417  18.259  0.00  0.00    +0.000 A 
ATOM     23  C   UNL     1      -7.723  -6.964  18.685  0.00  0.00    +0.000 A 
ATOM     24  C   UNL     1      -6.904  -6.248  19.549  0.00  0.00    +0.000 A 
ATOM     25  C   UNL     1      -7.295  -4.986  19.984  0.00  0.00    +0.000 A 
ATOM     26  C   UNL     1      -8.510  -4.421  19.555  0.00  0.00    +0.000 A 
ATOM     27  C   UNL     1      -8.901  -3.147  19.981  0.00  0.00    +0.000 A 
ATOM     28  N   UNL     1     -10.041  -2.525  19.612  0.00  0.00    +0.000 NA
ATOM     29  C   UNL     1     -10.839  -3.199  18.765  0.00  0.00    +0.000 A 
ATOM     30  C   UNL     1     -10.556  -4.468  18.284  0.00  0.00    +0.000 A 
ATOM     31  C   UNL     1      -9.364  -5.123  18.674  0.00  0.00    +0.000 A 
ATOM     32  H   UNL     1      -7.401  -7.947  18.343  0.00  0.00    +0.000 HD
ATOM     33  H   UNL     1      -5.956  -6.671  19.877  0.00  0.00    +0.000 HD
ATOM     34  H   UNL     1      -6.639  -4.437  20.657  0.00  0.00    +0.000 HD
ATOM     35  H   UNL     1      -8.277  -2.567  20.658  0.00  0.00    +0.000 HD
ATOM     36  H   UNL     1     -11.745  -2.679  18.467  0.00  0.00    +0.000 HD
ATOM     37  H   UNL     1     -11.268  -4.922  17.602  0.00  0.00    +0.000 HD
ENDBRANCH   2  22
TORSDOF 2
ENDMDL
MODEL 8
REMARK VINA RESULT:    -7.552      3.005      7.114
REMARK INTER + INTRA:          -8.299
REMARK INTER:                  -8.562
REMARK INTRA:                   0.263
REMARK UNBOUND:                 0.136
REMARK  Name = 
REMARK  2 active torsions:
REMARK  status: ('A' for Active; 'I' for Inactive)
REMARK    1  A    between atoms: S_2  and  C_4
REMARK    2  A    between atoms: S_2  and  N_14
REMARK                            x       y       z     vdW  Elec       q    Type
REMARK                         _______ _______ _______ _____ _____    ______ ____
ROOT
ATOM      1  O   UNL     1      -9.736  -5.938  19.210  0.00  0.00    +0.000 OA
ATOM      2  S   UNL     1      -8.582  -6.295  18.415  0.00  0.00    +0.000 S 
ATOM      3  O   UNL     1      -8.494  -5.883  17.028  0.00  0.00    +0.000 OA
ENDROOT
BRANCH   2   4
ATOM      4  N   UNL     1      -8.407  -8.019  18.437  0.00  0.00    +0.000 NA
ATOM      5  C   UNL     1      -9.437  -8.723  17.609  0.00  0.00    +0.000 C 
ATOM      6  C   UNL     1      -8.899 -10.013  17.003  0.00  0.00    +0.000 C 
ATOM      7  C   UNL     1      -8.515 -11.138  17.963  0.00  0.00    +0.000 C 
ATOM      8  N   UNL     1      -8.885 -10.953  19.364  0.00  0.00    +0.000 NA
ATOM      9  C   UNL     1      -8.000  -9.975  20.016  0.00  0.00    +0.000 C 
ATOM     10  C   UNL     1      -8.435  -8.511  19.861  0.00  0.00    +0.000 C 
ATOM     11  H   UNL     1      -9.731  -8.089  16.766  0.00  0.00    +0.000 HD
ATOM     12  H   UNL     1     -10.349  -8.906  18.189  0.00  0.00    +0.000 HD
ATOM     13  H   UNL     1      -8.035  -9.784  16.367  0.00  0.00    +0.000 HD
ATOM     14  H   UNL     1      -9.676 -10.401  16.330  0.00  0.00    +0.000 HD
ATOM     15  H   UNL     1      -7.442 -11.352  17.875  0.00  0.00    +0.000 HD
ATOM     16  H   UNL     1      -9.009 -12.054  17.614  0.00  0.00    +0.000 HD
ATOM     17  H   UNL     1      -8.764 -11.849  19.839  0.00  0.00    +0.000 HD
ATOM     18  H   UNL     1      -6.959 -10.105  19.696  0.00  0.00    +0.000 HD
ATOM     19  H   UNL     1      -8.014 -10.198  21.090  0.00  0.00    +0.000 HD
ATOM     20  H   UNL     1      -7.734  -7.916  20.458  0.00  0.00    +0.000 HD
ATOM     21  H   UNL     1      -9.436  -8.368  20.284  0.00  0.00    +0.000 HD
ENDBRANCH   2   4
BRANCH   2  22
ATOM     22  C   UNL     1      -7.135  -5.700  19.273  0.00  0.00    +0.000 A 
ATOM     23  C   UNL     1      -5.897  -6.252  18.901  0.00  0.00    +0.000 A 
ATOM     24  C   UNL     1      -4.730  -5.822  19.521  0.00  0.00    +0.000 A 
ATOM     25  C   UNL     1      -4.792  -4.839  20.503  0.00  0.00    +0.000 A 
ATOM     26  C   UNL     1      -6.022  -4.268  20.875  0.00  0.00    +0.000 A 
ATOM     27  C   UNL     1      -6.087  -3.271  21.854  0.00  0.00    +0.000 A 
ATOM     28  N   UNL     1      -7.220  -2.662  22.263  0.00  0.00    +0.000 NA
ATOM     29  C   UNL     1      -8.357  -3.057  21.665  0.00  0.00    +0.000 A 
ATOM     30  C   UNL     1      -8.413  -4.040  20.688  0.00  0.00    +0.000 A 
ATOM     31  C   UNL     1      -7.227  -4.682  20.262  0.00  0.00    +0.000 A 
ATOM     32  H   UNL     1      -5.834  -7.014  18.127  0.00  0.00    +0.000 HD
ATOM     33  H   UNL     1      -3.771  -6.248  19.232  0.00  0.00    +0.000 HD
ATOM     34  H   UNL     1      -3.867  -4.511  20.976  0.00  0.00    +0.000 HD
ATOM     35  H   UNL     1      -5.187  -2.919  22.354  0.00  0.00    +0.000 HD
ATOM     36  H   UNL     1      -9.258  -2.548  21.995  0.00  0.00    +0.000 HD
ATOM     37  H   UNL     1      -9.384  -4.281  20.267  0.00  0.00    +0.000 HD
ENDBRANCH   2  22
TORSDOF 2
ENDMDL
MODEL 9
REMARK VINA RESULT:    -7.293      2.399      6.907
REMARK INTER + INTRA:          -8.009
REMARK INTER:                  -8.124
REMARK INTRA:                   0.115
REMARK UNBOUND:                 0.136
REMARK  Name = 
REMARK  2 active torsions:
REMARK  status: ('A' for Active; 'I' for Inactive)
REMARK    1  A    between atoms: S_2  and  C_4
REMARK    2  A    between atoms: S_2  and  N_14
REMARK                            x       y       z     vdW  Elec       q    Type
REMARK                         _______ _______ _______ _____ _____    ______ ____
ROOT
ATOM      1  O   UNL     1      -8.652  -6.433  18.810  0.00  0.00    +0.000 OA
ATOM      2  S   UNL     1      -9.784  -6.896  18.038  0.00  0.00    +0.000 S 
ATOM      3  O   UNL     1     -11.100  -6.972  18.643  0.00  0.00    +0.000 OA
ENDROOT
BRANCH   2   4
ATOM      4  N   UNL     1      -9.425  -8.475  17.421  0.00  0.00    +0.000 NA
ATOM      5  C   UNL     1     -10.520  -9.034  16.566  0.00  0.00    +0.000 C 
ATOM      6  C   UNL     1      -9.982  -9.940  15.467  0.00  0.00    +0.000 C 
ATOM      7  C   UNL     1      -9.291 -11.235  15.895  0.00  0.00    +0.000 C 
ATOM      8  N   UNL     1      -9.386 -11.587  17.310  0.00  0.00    +0.000 NA
ATOM      9  C   UNL     1      -8.498 -10.741  18.122  0.00  0.00    +0.000 C 
ATOM     10  C   UNL     1      -9.110  -9.404  18.564  0.00  0.00    +0.000 C 
ATOM     11  H   UNL     1     -11.046  -8.218  16.059  0.00  0.00    +0.000 HD
ATOM     12  H   UNL     1     -11.270  -9.549  17.177  0.00  0.00    +0.000 HD
ATOM     13  H   UNL     1      -9.295  -9.372  14.829  0.00  0.00    +0.000 HD
ATOM     14  H   UNL     1     -10.833 -10.213  14.829  0.00  0.00    +0.000 HD
ATOM     15  H   UNL     1      -8.242 -11.222  15.573  0.00  0.00    +0.000 HD
ATOM     16  H   UNL     1      -9.746 -12.056  15.325  0.00  0.00    +0.000 HD
ATOM     17  H   UNL     1      -9.076 -12.554  17.412  0.00  0.00    +0.000 HD
ATOM     18  H   UNL     1      -7.535 -10.579  17.620  0.00  0.00    +0.000 HD
ATOM     19  H   UNL     1      -8.269 -11.303  19.036  0.00  0.00    +0.000 HD
ATOM     20  H   UNL     1      -8.369  -8.928  19.218  0.00  0.00    +0.000 HD
ATOM     21  H   UNL     1     -10.013  -9.582  19.160  0.00  0.00    +0.000 HD
ENDBRANCH   2   4
BRANCH   2  22
ATOM     22  C   UNL     1      -9.893  -5.874  16.580  0.00  0.00    +0.000 A 
ATOM     23  C   UNL     1      -9.188  -6.303  15.442  0.00  0.00    +0.000 A 
ATOM     24  C   UNL     1      -9.241  -5.559  14.269  0.00  0.00    +0.000 A 
ATOM     25  C   UNL     1     -10.001  -4.395  14.225  0.00  0.00    +0.000 A 
ATOM     26  C   UNL     1     -10.722  -3.961  15.351  0.00  0.00    +0.000 A 
ATOM     27  C   UNL     1     -11.496  -2.797  15.307  0.00  0.00    +0.000 A 
ATOM     28  N   UNL     1     -12.227  -2.315  16.335  0.00  0.00    +0.000 NA
ATOM     29  C   UNL     1     -12.197  -3.029  17.473  0.00  0.00    +0.000 A 
ATOM     30  C   UNL     1     -11.460  -4.193  17.634  0.00  0.00    +0.000 A 
ATOM     31  C   UNL     1     -10.691  -4.696  16.559  0.00  0.00    +0.000 A 
ATOM     32  H   UNL     1      -8.598  -7.218  15.461  0.00  0.00    +0.000 HD
ATOM     33  H   UNL     1      -8.697  -5.892  13.387  0.00  0.00    +0.000 HD
ATOM     34  H   UNL     1     -10.035  -3.826  13.296  0.00  0.00    +0.000 HD
ATOM     35  H   UNL     1     -11.553  -2.197  14.401  0.00  0.00    +0.000 HD
ATOM     36  H   UNL     1     -12.801  -2.636  18.285  0.00  0.00    +0.000 HD
ATOM     37  H   UNL     1     -11.508  -4.694  18.595  0.00  0.00    +0.000 HD
ENDBRANCH   2  22
TORSDOF 2
ENDMDL
