MODEL 1
REMARK VINA RESULT:    -8.402      0.000      0.000
REMARK INTER + INTRA:         -10.824
REMARK INTER:                 -10.367
REMARK INTRA:                  -0.457
REMARK UNBOUND:                -0.457
REMARK  Name = 
REMARK  6 active torsions:
REMARK  status: ('A' for Active; 'I' for Inactive)
REMARK    1  A    between atoms: S_2  and  C_4
REMARK    2  A    between atoms: S_2  and  N_10
REMARK    3  A    between atoms: C_13  and  O_14
REMARK    4  A    between atoms: C_15  and  O_16
REMARK    5  A    between atoms: C_22  and  O_23
REMARK    6  A    between atoms: C_24  and  O_25
REMARK                            x       y       z     vdW  Elec       q    Type
REMARK                         _______ _______ _______ _____ _____    ______ ____
ROOT
ATOM      1  N   UNL     1      -9.935  -8.176  17.473  0.00  0.00    +0.000 N 
ATOM      2  C   UNL     1     -10.138  -7.233  16.477  0.00  0.00    +0.000 A 
ATOM      3  C   UNL     1     -10.867  -6.040  16.375  0.00  0.00    +0.000 A 
ATOM      4  C   UNL     1     -10.472  -5.169  15.359  0.00  0.00    +0.000 A 
ATOM      5  C   UNL     1      -9.373  -5.443  14.556  0.00  0.00    +0.000 A 
ATOM      6  C   UNL     1      -8.835  -6.721  14.509  0.00  0.00    +0.000 A 
ATOM      7  C   UNL     1      -9.334  -7.664  15.426  0.00  0.00    +0.000 A 
ATOM      8  C   UNL     1      -9.346  -9.074  15.561  0.00  0.00    +0.000 A 
ATOM      9  C   UNL     1      -9.303 -10.166  14.672  0.00  0.00    +0.000 A 
ATOM     10  C   UNL     1      -9.117 -11.446  15.194  0.00  0.00    +0.000 A 
ATOM     11  C   UNL     1      -8.741 -11.578  16.522  0.00  0.00    +0.000 A 
ATOM     12  C   UNL     1      -8.799 -10.499  17.408  0.00  0.00    +0.000 A 
ATOM     13  C   UNL     1      -9.343  -9.307  16.935  0.00  0.00    +0.000 A 
ATOM     14  H   UNL     1     -11.668  -5.792  17.061  0.00  0.00    +0.000 HD
ATOM     15  H   UNL     1      -8.032  -6.963  13.820  0.00  0.00    +0.000 HD
ATOM     16  H   UNL     1      -9.498 -10.016  13.613  0.00  0.00    +0.000 HD
ATOM     17  H   UNL     1      -9.204 -12.304  14.536  0.00  0.00    +0.000 HD
ENDROOT
BRANCH   1  19
ATOM     18  O   UNL     1      -9.742  -8.973  19.903  0.00  0.00    +0.000 OA
ATOM     19  S   UNL     1     -10.021  -7.773  19.129  0.00  0.00    +0.000 S 
ATOM     20  O   UNL     1     -11.269  -7.052  19.312  0.00  0.00    +0.000 OA
BRANCH  19  21
ATOM     21  C   UNL     1      -8.682  -6.608  19.256  0.00  0.00    +0.000 A 
ATOM     22  C   UNL     1      -8.967  -5.246  19.413  0.00  0.00    +0.000 A 
ATOM     23  C   UNL     1      -7.946  -4.384  19.789  0.00  0.00    +0.000 A 
ATOM     24  C   UNL     1      -6.643  -4.863  19.972  0.00  0.00    +0.000 A 
ATOM     25  C   UNL     1      -6.350  -6.209  19.732  0.00  0.00    +0.000 A 
ATOM     26  C   UNL     1      -7.369  -7.089  19.374  0.00  0.00    +0.000 A 
ATOM     27  H   UNL     1      -9.979  -4.857  19.318  0.00  0.00    +0.000 HD
ATOM     28  H   UNL     1      -8.164  -3.333  19.970  0.00  0.00    +0.000 HD
ATOM     29  H   UNL     1      -5.860  -4.190  20.307  0.00  0.00    +0.000 HD
ATOM     30  H   UNL     1      -5.334  -6.575  19.859  0.00  0.00    +0.000 HD
ATOM     31  H   UNL     1      -7.147  -8.135  19.242  0.00  0.00    +0.000 HD
ENDBRANCH  19  21
ENDBRANCH   1  19
BRANCH   4  32
ATOM     32  O   UNL     1     -11.155  -4.007  15.129  0.00  0.00    +0.000 OA
ATOM     33  H   UNL     1     -11.060  -3.823  14.175  0.00  0.00    +0.000 HD
ENDBRANCH   4  32
BRANCH   5  34
ATOM     34  O   UNL     1      -8.844  -4.461  13.770  0.00  0.00    +0.000 OA
ATOM     35  H   UNL     1      -8.842  -3.665  14.339  0.00  0.00    +0.000 HD
ENDBRANCH   5  34
BRANCH  11  36
ATOM     36  O   UNL     1      -8.293 -12.774  17.016  0.00  0.00    +0.000 OA
ATOM     37  H   UNL     1      -8.847 -13.007  17.782  0.00  0.00    +0.000 HD
ENDBRANCH  11  36
BRANCH  12  38
ATOM     38  O   UNL     1      -8.266 -10.637  18.658  0.00  0.00    +0.000 OA
ATOM     39  H   UNL     1      -8.630  -9.886  19.170  0.00  0.00    +0.000 HD
ENDBRANCH  12  38
TORSDOF 6
ENDMDL
MODEL 2
REMARK VINA RESULT:    -7.729      3.089      6.054
REMARK INTER + INTRA:          -9.993
REMARK INTER:                  -9.716
REMARK INTRA:                  -0.277
REMARK UNBOUND:                -0.457
REMARK  Name = 
REMARK  6 active torsions:
REMARK  status: ('A' for Active; 'I' for Inactive)
REMARK    1  A    between atoms: S_2  and  C_4
REMARK    2  A    between atoms: S_2  and  N_10
REMARK    3  A    between atoms: C_13  and  O_14
REMARK    4  A    between atoms: C_15  and  O_16
REMARK    5  A    between atoms: C_22  and  O_23
REMARK    6  A    between atoms: C_24  and  O_25
REMARK                            x       y       z     vdW  Elec       q    Type
REMARK                         _______ _______ _______ _____ _____    ______ ____
ROOT
ATOM      1  N   UNL     1      -8.683  -5.204  18.957  0.00  0.00    +0.000 N 
ATOM      2  C   UNL     1      -8.704  -4.303  20.011  0.00  0.00    +0.000 A 
ATOM      3  C   UNL     1      -8.131  -4.261  21.290  0.00  0.00    +0.000 A 
ATOM      4  C   UNL     1      -8.040  -2.998  21.875  0.00  0.00    +0.000 A 
ATOM      5  C   UNL     1      -8.424  -1.852  21.192  0.00  0.00    +0.000 A 
ATOM      6  C   UNL     1      -9.209  -1.942  20.051  0.00  0.00    +0.000 A 
ATOM      7  C   UNL     1      -9.445  -3.228  19.531  0.00  0.00    +0.000 A 
ATOM      8  C   UNL     1     -10.369  -3.835  18.646  0.00  0.00    +0.000 A 
ATOM      9  C   UNL     1     -11.701  -3.586  18.262  0.00  0.00    +0.000 A 
ATOM     10  C   UNL     1     -12.228  -4.291  17.180  0.00  0.00    +0.000 A 
ATOM     11  C   UNL     1     -11.368  -5.021  16.374  0.00  0.00    +0.000 A 
ATOM     12  C   UNL     1     -10.051  -5.282  16.763  0.00  0.00    +0.000 A 
ATOM     13  C   UNL     1      -9.659  -4.867  18.034  0.00  0.00    +0.000 A 
ATOM     14  H   UNL     1      -7.751  -5.148  21.783  0.00  0.00    +0.000 HD
ATOM     15  H   UNL     1      -9.585  -1.049  19.561  0.00  0.00    +0.000 HD
ATOM     16  H   UNL     1     -12.325  -2.922  18.855  0.00  0.00    +0.000 HD
ATOM     17  H   UNL     1     -13.284  -4.199  16.952  0.00  0.00    +0.000 HD
ENDROOT
BRANCH   1  19
ATOM     18  O   UNL     1      -6.365  -5.994  19.716  0.00  0.00    +0.000 OA
ATOM     19  S   UNL     1      -7.368  -6.258  18.696  0.00  0.00    +0.000 S 
ATOM     20  O   UNL     1      -7.030  -6.153  17.287  0.00  0.00    +0.000 OA
BRANCH  19  21
ATOM     21  C   UNL     1      -8.149  -7.834  18.965  0.00  0.00    +0.000 A 
ATOM     22  C   UNL     1      -8.612  -8.569  17.865  0.00  0.00    +0.000 A 
ATOM     23  C   UNL     1      -8.960  -9.900  18.045  0.00  0.00    +0.000 A 
ATOM     24  C   UNL     1      -8.885 -10.490  19.313  0.00  0.00    +0.000 A 
ATOM     25  C   UNL     1      -8.501  -9.726  20.420  0.00  0.00    +0.000 A 
ATOM     26  C   UNL     1      -8.129  -8.395  20.250  0.00  0.00    +0.000 A 
ATOM     27  H   UNL     1      -8.639  -8.147  16.863  0.00  0.00    +0.000 HD
ATOM     28  H   UNL     1      -9.268 -10.500  17.190  0.00  0.00    +0.000 HD
ATOM     29  H   UNL     1      -9.118 -11.542  19.436  0.00  0.00    +0.000 HD
ATOM     30  H   UNL     1      -8.459 -10.182  21.407  0.00  0.00    +0.000 HD
ATOM     31  H   UNL     1      -7.784  -7.827  21.098  0.00  0.00    +0.000 HD
ENDBRANCH  19  21
ENDBRANCH   1  19
BRANCH   4  32
ATOM     32  O   UNL     1      -7.557  -2.848  23.146  0.00  0.00    +0.000 OA
ATOM     33  H   UNL     1      -8.326  -2.944  23.740  0.00  0.00    +0.000 HD
ENDBRANCH   4  32
BRANCH   5  34
ATOM     34  O   UNL     1      -8.069  -0.624  21.669  0.00  0.00    +0.000 OA
ATOM     35  H   UNL     1      -8.681  -0.465  22.416  0.00  0.00    +0.000 HD
ENDBRANCH   5  34
BRANCH  11  36
ATOM     36  O   UNL     1     -11.775  -5.512  15.163  0.00  0.00    +0.000 OA
ATOM     37  H   UNL     1     -10.981  -5.699  14.634  0.00  0.00    +0.000 HD
ENDBRANCH  11  36
BRANCH  12  38
ATOM     38  O   UNL     1      -9.197  -5.862  15.867  0.00  0.00    +0.000 OA
ATOM     39  H   UNL     1      -9.694  -5.883  15.024  0.00  0.00    +0.000 HD
ENDBRANCH  12  38
TORSDOF 6
ENDMDL
MODEL 3
REMARK VINA RESULT:    -7.346      3.261      6.352
REMARK INTER + INTRA:          -9.521
REMARK INTER:                  -8.972
REMARK INTRA:                  -0.548
REMARK UNBOUND:                -0.457
REMARK  Name = 
REMARK  6 active torsions:
REMARK  status: ('A' for Active; 'I' for Inactive)
REMARK    1  A    between atoms: S_2  and  C_4
REMARK    2  A    between atoms: S_2  and  N_10
REMARK    3  A    between atoms: C_13  and  O_14
REMARK    4  A    between atoms: C_15  and  O_16
REMARK    5  A    between atoms: C_22  and  O_23
REMARK    6  A    between atoms: C_24  and  O_25
REMARK                            x       y       z     vdW  Elec       q    Type
REMARK                         _______ _______ _______ _____ _____    ______ ____
ROOT
ATOM      1  N   UNL     1     -10.337  -4.102  18.409  0.00  0.00    +0.000 N 
ATOM      2  C   UNL     1     -10.261  -5.379  17.872  0.00  0.00    +0.000 A 
ATOM      3  C   UNL     1     -11.149  -6.222  17.189  0.00  0.00    +0.000 A 
ATOM      4  C   UNL     1     -10.565  -7.248  16.446  0.00  0.00    +0.000 A 
ATOM      5  C   UNL     1      -9.186  -7.367  16.333  0.00  0.00    +0.000 A 
ATOM      6  C   UNL     1      -8.346  -6.691  17.205  0.00  0.00    +0.000 A 
ATOM      7  C   UNL     1      -8.938  -5.760  18.079  0.00  0.00    +0.000 A 
ATOM      8  C   UNL     1      -8.591  -5.101  19.283  0.00  0.00    +0.000 A 
ATOM      9  C   UNL     1      -7.758  -5.393  20.381  0.00  0.00    +0.000 A 
ATOM     10  C   UNL     1      -7.496  -4.384  21.308  0.00  0.00    +0.000 A 
ATOM     11  C   UNL     1      -7.855  -3.081  20.998  0.00  0.00    +0.000 A 
ATOM     12  C   UNL     1      -8.695  -2.793  19.919  0.00  0.00    +0.000 A 
ATOM     13  C   UNL     1      -9.241  -3.869  19.222  0.00  0.00    +0.000 A 
ATOM     14  H   UNL     1     -12.221  -6.070  17.210  0.00  0.00    +0.000 HD
ATOM     15  H   UNL     1      -7.272  -6.847  17.179  0.00  0.00    +0.000 HD
ATOM     16  H   UNL     1      -7.401  -6.407  20.541  0.00  0.00    +0.000 HD
ATOM     17  H   UNL     1      -6.959  -4.627  22.218  0.00  0.00    +0.000 HD
ENDROOT
BRANCH   1  19
ATOM     18  O   UNL     1     -11.459  -1.818  18.729  0.00  0.00    +0.000 OA
ATOM     19  S   UNL     1     -11.399  -2.922  17.783  0.00  0.00    +0.000 S 
ATOM     20  O   UNL     1     -12.610  -3.624  17.393  0.00  0.00    +0.000 OA
BRANCH  19  21
ATOM     21  C   UNL     1     -10.530  -2.447  16.305  0.00  0.00    +0.000 A 
ATOM     22  C   UNL     1     -10.756  -3.154  15.117  0.00  0.00    +0.000 A 
ATOM     23  C   UNL     1     -10.303  -2.618  13.919  0.00  0.00    +0.000 A 
ATOM     24  C   UNL     1      -9.599  -1.408  13.903  0.00  0.00    +0.000 A 
ATOM     25  C   UNL     1      -9.306  -0.751  15.102  0.00  0.00    +0.000 A 
ATOM     26  C   UNL     1      -9.772  -1.266  16.309  0.00  0.00    +0.000 A 
ATOM     27  H   UNL     1     -11.336  -4.073  15.098  0.00  0.00    +0.000 HD
ATOM     28  H   UNL     1     -10.519  -3.128  12.982  0.00  0.00    +0.000 HD
ATOM     29  H   UNL     1      -9.285  -0.975  12.958  0.00  0.00    +0.000 HD
ATOM     30  H   UNL     1      -8.744   0.181  15.088  0.00  0.00    +0.000 HD
ATOM     31  H   UNL     1      -9.589  -0.728  17.224  0.00  0.00    +0.000 HD
ENDBRANCH  19  21
ENDBRANCH   1  19
BRANCH   4  32
ATOM     32  O   UNL     1     -11.339  -8.166  15.793  0.00  0.00    +0.000 OA
ATOM     33  H   UNL     1     -10.873  -8.367  14.959  0.00  0.00    +0.000 HD
ENDBRANCH   4  32
BRANCH   5  34
ATOM     34  O   UNL     1      -8.651  -8.194  15.388  0.00  0.00    +0.000 OA
ATOM     35  H   UNL     1      -8.536  -7.624  14.600  0.00  0.00    +0.000 HD
ENDBRANCH   5  34
BRANCH  11  36
ATOM     36  O   UNL     1      -7.397  -2.024  21.737  0.00  0.00    +0.000 OA
ATOM     37  H   UNL     1      -6.571  -1.710  21.330  0.00  0.00    +0.000 HD
ENDBRANCH  11  36
BRANCH  12  38
ATOM     38  O   UNL     1      -8.888  -1.490  19.556  0.00  0.00    +0.000 OA
ATOM     39  H   UNL     1      -8.120  -1.271  18.990  0.00  0.00    +0.000 HD
ENDBRANCH  12  38
TORSDOF 6
ENDMDL
MODEL 4
REMARK VINA RESULT:    -7.255      3.119      5.540
REMARK INTER + INTRA:          -9.408
REMARK INTER:                  -9.042
REMARK INTRA:                  -0.366
REMARK UNBOUND:                -0.457
REMARK  Name = 
REMARK  6 active torsions:
REMARK  status: ('A' for Active; 'I' for Inactive)
REMARK    1  A    between atoms: S_2  and  C_4
REMARK    2  A    between atoms: S_2  and  N_10
REMARK    3  A    between atoms: C_13  and  O_14
REMARK    4  A    between atoms: C_15  and  O_16
REMARK    5  A    between atoms: C_22  and  O_23
REMARK    6  A    between atoms: C_24  and  O_25
REMARK                            x       y       z     vdW  Elec       q    Type
REMARK                         _______ _______ _______ _____ _____    ______ ____
ROOT
ATOM      1  N   UNL     1     -11.069  -4.794  17.068  0.00  0.00    +0.000 N 
ATOM      2  C   UNL     1     -11.386  -3.769  17.946  0.00  0.00    +0.000 A 
ATOM      3  C   UNL     1     -11.829  -3.704  19.276  0.00  0.00    +0.000 A 
ATOM      4  C   UNL     1     -11.622  -2.489  19.928  0.00  0.00    +0.000 A 
ATOM      5  C   UNL     1     -10.947  -1.442  19.314  0.00  0.00    +0.000 A 
ATOM      6  C   UNL     1     -10.749  -1.440  17.941  0.00  0.00    +0.000 A 
ATOM      7  C   UNL     1     -11.101  -2.606  17.237  0.00  0.00    +0.000 A 
ATOM      8  C   UNL     1     -11.373  -2.966  15.895  0.00  0.00    +0.000 A 
ATOM      9  C   UNL     1     -11.873  -2.297  14.760  0.00  0.00    +0.000 A 
ATOM     10  C   UNL     1     -11.805  -2.937  13.522  0.00  0.00    +0.000 A 
ATOM     11  C   UNL     1     -11.039  -4.087  13.406  0.00  0.00    +0.000 A 
ATOM     12  C   UNL     1     -10.558  -4.760  14.532  0.00  0.00    +0.000 A 
ATOM     13  C   UNL     1     -10.955  -4.291  15.782  0.00  0.00    +0.000 A 
ATOM     14  H   UNL     1     -12.275  -4.554  19.778  0.00  0.00    +0.000 HD
ATOM     15  H   UNL     1     -10.300  -0.586  17.443  0.00  0.00    +0.000 HD
ATOM     16  H   UNL     1     -12.377  -1.340  14.869  0.00  0.00    +0.000 HD
ATOM     17  H   UNL     1     -12.294  -2.487  12.666  0.00  0.00    +0.000 HD
ENDROOT
BRANCH   1  19
ATOM     18  O   UNL     1     -10.480  -7.220  16.481  0.00  0.00    +0.000 OA
ATOM     19  S   UNL     1     -10.499  -6.307  17.613  0.00  0.00    +0.000 S 
ATOM     20  O   UNL     1     -11.264  -6.628  18.806  0.00  0.00    +0.000 OA
BRANCH  19  21
ATOM     21  C   UNL     1      -8.846  -5.877  18.111  0.00  0.00    +0.000 A 
ATOM     22  C   UNL     1      -8.651  -5.137  19.285  0.00  0.00    +0.000 A 
ATOM     23  C   UNL     1      -7.373  -5.045  19.817  0.00  0.00    +0.000 A 
ATOM     24  C   UNL     1      -6.288  -5.650  19.171  0.00  0.00    +0.000 A 
ATOM     25  C   UNL     1      -6.478  -6.316  17.956  0.00  0.00    +0.000 A 
ATOM     26  C   UNL     1      -7.759  -6.435  17.421  0.00  0.00    +0.000 A 
ATOM     27  H   UNL     1      -9.483  -4.694  19.828  0.00  0.00    +0.000 HD
ATOM     28  H   UNL     1      -7.214  -4.520  20.758  0.00  0.00    +0.000 HD
ATOM     29  H   UNL     1      -5.299  -5.608  19.616  0.00  0.00    +0.000 HD
ATOM     30  H   UNL     1      -5.632  -6.772  17.447  0.00  0.00    +0.000 HD
ATOM     31  H   UNL     1      -7.907  -6.994  16.513  0.00  0.00    +0.000 HD
ENDBRANCH  19  21
ENDBRANCH   1  19
BRANCH   4  32
ATOM     32  O   UNL     1     -12.072  -2.294  21.204  0.00  0.00    +0.000 OA
ATOM     33  H   UNL     1     -12.711  -1.558  21.156  0.00  0.00    +0.000 HD
ENDBRANCH   4  32
BRANCH   5  34
ATOM     34  O   UNL     1     -10.516  -0.382  20.058  0.00  0.00    +0.000 OA
ATOM     35  H   UNL     1     -10.350  -0.757  20.946  0.00  0.00    +0.000 HD
ENDBRANCH   5  34
BRANCH  11  36
ATOM     36  O   UNL     1     -10.722  -4.607  12.180  0.00  0.00    +0.000 OA
ATOM     37  H   UNL     1     -10.114  -5.354  12.320  0.00  0.00    +0.000 HD
ENDBRANCH  11  36
BRANCH  12  38
ATOM     38  O   UNL     1      -9.676  -5.790  14.364  0.00  0.00    +0.000 OA
ATOM     39  H   UNL     1      -9.600  -5.900  13.394  0.00  0.00    +0.000 HD
ENDBRANCH  12  38
TORSDOF 6
ENDMDL
MODEL 5
REMARK VINA RESULT:    -7.239      3.705      5.856
REMARK INTER + INTRA:          -9.388
REMARK INTER:                  -9.047
REMARK INTRA:                  -0.342
REMARK UNBOUND:                -0.457
REMARK  Name = 
REMARK  6 active torsions:
REMARK  status: ('A' for Active; 'I' for Inactive)
REMARK    1  A    between atoms: S_2  and  C_4
REMARK    2  A    between atoms: S_2  and  N_10
REMARK    3  A    between atoms: C_13  and  O_14
REMARK    4  A    between atoms: C_15  and  O_16
REMARK    5  A    between atoms: C_22  and  O_23
REMARK    6  A    between atoms: C_24  and  O_25
REMARK                            x       y       z     vdW  Elec       q    Type
REMARK                         _______ _______ _______ _____ _____    ______ ____
ROOT
ATOM      1  N   UNL     1     -10.192  -4.113  18.348  0.00  0.00    +0.000 N 
ATOM      2  C   UNL     1      -9.199  -3.727  19.236  0.00  0.00    +0.000 A 
ATOM      3  C   UNL     1      -8.830  -2.521  19.849  0.00  0.00    +0.000 A 
ATOM      4  C   UNL     1      -8.049  -2.635  20.998  0.00  0.00    +0.000 A 
ATOM      5  C   UNL     1      -7.728  -3.874  21.537  0.00  0.00    +0.000 A 
ATOM      6  C   UNL     1      -7.885  -5.031  20.787  0.00  0.00    +0.000 A 
ATOM      7  C   UNL     1      -8.535  -4.910  19.545  0.00  0.00    +0.000 A 
ATOM      8  C   UNL     1      -8.647  -5.670  18.356  0.00  0.00    +0.000 A 
ATOM      9  C   UNL     1      -7.837  -6.608  17.685  0.00  0.00    +0.000 A 
ATOM     10  C   UNL     1      -8.384  -7.323  16.619  0.00  0.00    +0.000 A 
ATOM     11  C   UNL     1      -9.754  -7.270  16.412  0.00  0.00    +0.000 A 
ATOM     12  C   UNL     1     -10.555  -6.329  17.064  0.00  0.00    +0.000 A 
ATOM     13  C   UNL     1      -9.916  -5.379  17.858  0.00  0.00    +0.000 A 
ATOM     14  H   UNL     1      -9.158  -1.559  19.473  0.00  0.00    +0.000 HD
ATOM     15  H   UNL     1      -7.555  -5.992  21.170  0.00  0.00    +0.000 HD
ATOM     16  H   UNL     1      -6.785  -6.704  17.943  0.00  0.00    +0.000 HD
ATOM     17  H   UNL     1      -7.739  -7.955  16.019  0.00  0.00    +0.000 HD
ENDROOT
BRANCH   1  19
ATOM     18  O   UNL     1     -12.221  -3.181  19.609  0.00  0.00    +0.000 OA
ATOM     19  S   UNL     1     -11.689  -3.300  18.260  0.00  0.00    +0.000 S 
ATOM     20  O   UNL     1     -12.457  -3.966  17.222  0.00  0.00    +0.000 OA
BRANCH  19  21
ATOM     21  C   UNL     1     -11.169  -1.716  17.639  0.00  0.00    +0.000 A 
ATOM     22  C   UNL     1     -11.431  -0.563  18.391  0.00  0.00    +0.000 A 
ATOM     23  C   UNL     1     -10.789   0.620  18.052  0.00  0.00    +0.000 A 
ATOM     24  C   UNL     1      -9.922   0.670  16.953  0.00  0.00    +0.000 A 
ATOM     25  C   UNL     1      -9.732  -0.465  16.159  0.00  0.00    +0.000 A 
ATOM     26  C   UNL     1     -10.353  -1.665  16.499  0.00  0.00    +0.000 A 
ATOM     27  H   UNL     1     -12.066  -0.585  19.273  0.00  0.00    +0.000 HD
ATOM     28  H   UNL     1     -10.938   1.511  18.660  0.00  0.00    +0.000 HD
ATOM     29  H   UNL     1      -9.393   1.588  16.721  0.00  0.00    +0.000 HD
ATOM     30  H   UNL     1      -9.071  -0.420  15.296  0.00  0.00    +0.000 HD
ATOM     31  H   UNL     1     -10.160  -2.549  15.915  0.00  0.00    +0.000 HD
ENDBRANCH  19  21
ENDBRANCH   1  19
BRANCH   4  32
ATOM     32  O   UNL     1      -7.580  -1.522  21.639  0.00  0.00    +0.000 OA
ATOM     33  H   UNL     1      -8.231  -0.816  21.464  0.00  0.00    +0.000 HD
ENDBRANCH   4  32
BRANCH   5  34
ATOM     34  O   UNL     1      -7.210  -3.953  22.797  0.00  0.00    +0.000 OA
ATOM     35  H   UNL     1      -6.671  -4.771  22.789  0.00  0.00    +0.000 HD
ENDBRANCH   5  34
BRANCH  11  36
ATOM     36  O   UNL     1     -10.376  -8.143  15.559  0.00  0.00    +0.000 OA
ATOM     37  H   UNL     1     -11.246  -7.770  15.332  0.00  0.00    +0.000 HD
ENDBRANCH  11  36
BRANCH  12  38
ATOM     38  O   UNL     1     -11.914  -6.422  16.953  0.00  0.00    +0.000 OA
ATOM     39  H   UNL     1     -12.219  -6.703  17.840  0.00  0.00    +0.000 HD
ENDBRANCH  12  38
TORSDOF 6
ENDMDL
MODEL 6
REMARK VINA RESULT:    -7.136      3.604      6.440
REMARK INTER + INTRA:          -9.262
REMARK INTER:                  -8.766
REMARK INTRA:                  -0.496
REMARK UNBOUND:                -0.457
REMARK  Name = 
REMARK  6 active torsions:
REMARK  status: ('A' for Active; 'I' for Inactive)
REMARK    1  A    between atoms: S_2  and  C_4
REMARK    2  A    between atoms: S_2  and  N_10
REMARK    3  A    between atoms: C_13  and  O_14
REMARK    4  A    between atoms: C_15  and  O_16
REMARK    5  A    between atoms: C_22  and  O_23
REMARK    6  A    between atoms: C_24  and  O_25
REMARK                            x       y       z     vdW  Elec       q    Type
REMARK                         _______ _______ _______ _____ _____    ______ ____
ROOT
ATOM      1  N   UNL     1      -9.874  -3.548  18.934  0.00  0.00    +0.000 N 
ATOM      2  C   UNL     1      -8.885  -3.257  19.862  0.00  0.00    +0.000 A 
ATOM      3  C   UNL     1      -8.482  -2.105  20.552  0.00  0.00    +0.000 A 
ATOM      4  C   UNL     1      -7.729  -2.319  21.706  0.00  0.00    +0.000 A 
ATOM      5  C   UNL     1      -7.469  -3.599  22.176  0.00  0.00    +0.000 A 
ATOM      6  C   UNL     1      -7.656  -4.702  21.355  0.00  0.00    +0.000 A 
ATOM      7  C   UNL     1      -8.275  -4.482  20.111  0.00  0.00    +0.000 A 
ATOM      8  C   UNL     1      -8.393  -5.165  18.876  0.00  0.00    +0.000 A 
ATOM      9  C   UNL     1      -7.607  -6.094  18.165  0.00  0.00    +0.000 A 
ATOM     10  C   UNL     1      -8.160  -6.721  17.048  0.00  0.00    +0.000 A 
ATOM     11  C   UNL     1      -9.522  -6.600  16.820  0.00  0.00    +0.000 A 
ATOM     12  C   UNL     1     -10.299  -5.668  17.513  0.00  0.00    +0.000 A 
ATOM     13  C   UNL     1      -9.639  -4.793  18.374  0.00  0.00    +0.000 A 
ATOM     14  H   UNL     1      -8.763  -1.110  20.229  0.00  0.00    +0.000 HD
ATOM     15  H   UNL     1      -7.373  -5.697  21.685  0.00  0.00    +0.000 HD
ATOM     16  H   UNL     1      -6.566  -6.247  18.435  0.00  0.00    +0.000 HD
ATOM     17  H   UNL     1      -7.529  -7.343  16.423  0.00  0.00    +0.000 HD
ENDROOT
BRANCH   1  19
ATOM     18  O   UNL     1     -11.251  -1.574  19.819  0.00  0.00    +0.000 OA
ATOM     19  S   UNL     1     -11.336  -2.672  18.868  0.00  0.00    +0.000 S 
ATOM     20  O   UNL     1     -12.407  -3.649  18.965  0.00  0.00    +0.000 OA
BRANCH  19  21
ATOM     21  C   UNL     1     -11.283  -2.068  17.195  0.00  0.00    +0.000 A 
ATOM     22  C   UNL     1     -10.094  -1.519  16.699  0.00  0.00    +0.000 A 
ATOM     23  C   UNL     1      -9.968  -1.311  15.332  0.00  0.00    +0.000 A 
ATOM     24  C   UNL     1     -11.028  -1.609  14.467  0.00  0.00    +0.000 A 
ATOM     25  C   UNL     1     -12.241  -2.079  14.980  0.00  0.00    +0.000 A 
ATOM     26  C   UNL     1     -12.374  -2.312  16.347  0.00  0.00    +0.000 A 
ATOM     27  H   UNL     1      -9.241  -1.319  17.344  0.00  0.00    +0.000 HD
ATOM     28  H   UNL     1      -9.030  -0.937  14.925  0.00  0.00    +0.000 HD
ATOM     29  H   UNL     1     -10.906  -1.482  13.397  0.00  0.00    +0.000 HD
ATOM     30  H   UNL     1     -13.068  -2.294  14.308  0.00  0.00    +0.000 HD
ATOM     31  H   UNL     1     -13.293  -2.724  16.730  0.00  0.00    +0.000 HD
ENDBRANCH  19  21
ENDBRANCH   1  19
BRANCH   4  32
ATOM     32  O   UNL     1      -7.230  -1.266  22.421  0.00  0.00    +0.000 OA
ATOM     33  H   UNL     1      -7.986  -0.671  22.589  0.00  0.00    +0.000 HD
ENDBRANCH   4  32
BRANCH   5  34
ATOM     34  O   UNL     1      -6.980  -3.775  23.438  0.00  0.00    +0.000 OA
ATOM     35  H   UNL     1      -6.602  -4.678  23.431  0.00  0.00    +0.000 HD
ENDBRANCH   5  34
BRANCH  11  36
ATOM     36  O   UNL     1     -10.161  -7.395  15.906  0.00  0.00    +0.000 OA
ATOM     37  H   UNL     1     -11.080  -7.085  15.831  0.00  0.00    +0.000 HD
ENDBRANCH  11  36
BRANCH  12  38
ATOM     38  O   UNL     1     -11.657  -5.699  17.372  0.00  0.00    +0.000 OA
ATOM     39  H   UNL     1     -11.824  -6.382  16.692  0.00  0.00    +0.000 HD
ENDBRANCH  12  38
TORSDOF 6
ENDMDL
MODEL 7
REMARK VINA RESULT:    -7.032      1.308      4.844
REMARK INTER + INTRA:          -9.133
REMARK INTER:                  -8.640
REMARK INTRA:                  -0.494
REMARK UNBOUND:                -0.457
REMARK  Name = 
REMARK  6 active torsions:
REMARK  status: ('A' for Active; 'I' for Inactive)
REMARK    1  A    between atoms: S_2  and  C_4
REMARK    2  A    between atoms: S_2  and  N_10
REMARK    3  A    between atoms: C_13  and  O_14
REMARK    4  A    between atoms: C_15  and  O_16
REMARK    5  A    between atoms: C_22  and  O_23
REMARK    6  A    between atoms: C_24  and  O_25
REMARK                            x       y       z     vdW  Elec       q    Type
REMARK                         _______ _______ _______ _____ _____    ______ ____
ROOT
ATOM      1  N   UNL     1      -8.907  -8.972  18.195  0.00  0.00    +0.000 N 
ATOM      2  C   UNL     1      -8.576 -10.307  18.022  0.00  0.00    +0.000 A 
ATOM      3  C   UNL     1      -7.962 -11.287  18.815  0.00  0.00    +0.000 A 
ATOM      4  C   UNL     1      -8.198 -12.610  18.440  0.00  0.00    +0.000 A 
ATOM      5  C   UNL     1      -9.054 -12.925  17.393  0.00  0.00    +0.000 A 
ATOM      6  C   UNL     1      -9.440 -11.953  16.481  0.00  0.00    +0.000 A 
ATOM      7  C   UNL     1      -9.073 -10.624  16.761  0.00  0.00    +0.000 A 
ATOM      8  C   UNL     1      -8.955  -9.408  16.046  0.00  0.00    +0.000 A 
ATOM      9  C   UNL     1      -8.688  -9.053  14.709  0.00  0.00    +0.000 A 
ATOM     10  C   UNL     1      -8.862  -7.724  14.322  0.00  0.00    +0.000 A 
ATOM     11  C   UNL     1      -9.516  -6.857  15.184  0.00  0.00    +0.000 A 
ATOM     12  C   UNL     1      -9.766  -7.202  16.515  0.00  0.00    +0.000 A 
ATOM     13  C   UNL     1      -9.248  -8.411  16.976  0.00  0.00    +0.000 A 
ATOM     14  H   UNL     1      -7.367 -11.037  19.684  0.00  0.00    +0.000 HD
ATOM     15  H   UNL     1     -10.038 -12.210  15.612  0.00  0.00    +0.000 HD
ATOM     16  H   UNL     1      -8.272  -9.787  14.022  0.00  0.00    +0.000 HD
ATOM     17  H   UNL     1      -8.544  -7.415  13.333  0.00  0.00    +0.000 HD
ENDROOT
BRANCH   1  19
ATOM     18  O   UNL     1      -8.863  -9.301  20.738  0.00  0.00    +0.000 OA
ATOM     19  S   UNL     1      -9.239  -8.317  19.735  0.00  0.00    +0.000 S 
ATOM     20  O   UNL     1     -10.598  -7.804  19.679  0.00  0.00    +0.000 OA
BRANCH  19  21
ATOM     21  C   UNL     1      -8.122  -6.932  19.753  0.00  0.00    +0.000 A 
ATOM     22  C   UNL     1      -8.551  -5.709  20.284  0.00  0.00    +0.000 A 
ATOM     23  C   UNL     1      -7.609  -4.726  20.554  0.00  0.00    +0.000 A 
ATOM     24  C   UNL     1      -6.255  -4.939  20.265  0.00  0.00    +0.000 A 
ATOM     25  C   UNL     1      -5.848  -6.131  19.659  0.00  0.00    +0.000 A 
ATOM     26  C   UNL     1      -6.779  -7.135  19.401  0.00  0.00    +0.000 A 
ATOM     27  H   UNL     1      -9.589  -5.534  20.556  0.00  0.00    +0.000 HD
ATOM     28  H   UNL     1      -7.919  -3.791  21.018  0.00  0.00    +0.000 HD
ATOM     29  H   UNL     1      -5.521  -4.182  20.518  0.00  0.00    +0.000 HD
ATOM     30  H   UNL     1      -4.798  -6.288  19.420  0.00  0.00    +0.000 HD
ATOM     31  H   UNL     1      -6.451  -8.071  18.983  0.00  0.00    +0.000 HD
ENDBRANCH  19  21
ENDBRANCH   1  19
BRANCH   4  32
ATOM     32  O   UNL     1      -7.598 -13.643  19.104  0.00  0.00    +0.000 OA
ATOM     33  H   UNL     1      -8.318 -14.244  19.375  0.00  0.00    +0.000 HD
ENDBRANCH   4  32
BRANCH   5  34
ATOM     34  O   UNL     1      -9.483 -14.210  17.228  0.00  0.00    +0.000 OA
ATOM     35  H   UNL     1      -9.426 -14.604  18.122  0.00  0.00    +0.000 HD
ENDBRANCH   5  34
BRANCH  11  36
ATOM     36  O   UNL     1      -9.945  -5.627  14.762  0.00  0.00    +0.000 OA
ATOM     37  H   UNL     1     -10.363  -5.740  13.890  0.00  0.00    +0.000 HD
ENDBRANCH  11  36
BRANCH  12  38
ATOM     38  O   UNL     1     -10.554  -6.386  17.276  0.00  0.00    +0.000 OA
ATOM     39  H   UNL     1     -10.994  -6.985  17.913  0.00  0.00    +0.000 HD
ENDBRANCH  12  38
TORSDOF 6
ENDMDL
MODEL 8
REMARK VINA RESULT:    -6.877      4.924      8.069
REMARK INTER + INTRA:          -8.941
REMARK INTER:                  -8.513
REMARK INTRA:                  -0.428
REMARK UNBOUND:                -0.457
REMARK  Name = 
REMARK  6 active torsions:
REMARK  status: ('A' for Active; 'I' for Inactive)
REMARK    1  A    between atoms: S_2  and  C_4
REMARK    2  A    between atoms: S_2  and  N_10
REMARK    3  A    between atoms: C_13  and  O_14
REMARK    4  A    between atoms: C_15  and  O_16
REMARK    5  A    between atoms: C_22  and  O_23
REMARK    6  A    between atoms: C_24  and  O_25
REMARK                            x       y       z     vdW  Elec       q    Type
REMARK                         _______ _______ _______ _____ _____    ______ ____
ROOT
ATOM      1  N   UNL     1      -9.192  -2.291  20.822  0.00  0.00    +0.000 N 
ATOM      2  C   UNL     1      -8.884  -1.880  22.110  0.00  0.00    +0.000 A 
ATOM      3  C   UNL     1      -9.107  -0.715  22.858  0.00  0.00    +0.000 A 
ATOM      4  C   UNL     1      -9.020  -0.855  24.243  0.00  0.00    +0.000 A 
ATOM      5  C   UNL     1      -8.802  -2.093  24.835  0.00  0.00    +0.000 A 
ATOM      6  C   UNL     1      -8.339  -3.162  24.082  0.00  0.00    +0.000 A 
ATOM      7  C   UNL     1      -8.270  -2.987  22.688  0.00  0.00    +0.000 A 
ATOM      8  C   UNL     1      -7.616  -3.607  21.595  0.00  0.00    +0.000 A 
ATOM      9  C   UNL     1      -6.423  -4.335  21.424  0.00  0.00    +0.000 A 
ATOM     10  C   UNL     1      -6.206  -4.987  20.209  0.00  0.00    +0.000 A 
ATOM     11  C   UNL     1      -7.259  -5.102  19.315  0.00  0.00    +0.000 A 
ATOM     12  C   UNL     1      -8.436  -4.367  19.476  0.00  0.00    +0.000 A 
ATOM     13  C   UNL     1      -8.480  -3.439  20.514  0.00  0.00    +0.000 A 
ATOM     14  H   UNL     1      -9.365   0.229  22.394  0.00  0.00    +0.000 HD
ATOM     15  H   UNL     1      -8.084  -4.107  24.553  0.00  0.00    +0.000 HD
ATOM     16  H   UNL     1      -5.655  -4.313  22.193  0.00  0.00    +0.000 HD
ATOM     17  H   UNL     1      -5.242  -5.447  20.020  0.00  0.00    +0.000 HD
ENDROOT
BRANCH   1  19
ATOM     18  O   UNL     1     -11.164  -0.652  20.796  0.00  0.00    +0.000 OA
ATOM     19  S   UNL     1     -10.551  -1.691  19.983  0.00  0.00    +0.000 S 
ATOM     20  O   UNL     1     -11.321  -2.850  19.565  0.00  0.00    +0.000 OA
BRANCH  19  21
ATOM     21  C   UNL     1      -9.769  -0.994  18.544  0.00  0.00    +0.000 A 
ATOM     22  C   UNL     1     -10.026  -1.551  17.284  0.00  0.00    +0.000 A 
ATOM     23  C   UNL     1      -9.649  -0.847  16.149  0.00  0.00    +0.000 A 
ATOM     24  C   UNL     1      -8.989   0.383  16.261  0.00  0.00    +0.000 A 
ATOM     25  C   UNL     1      -8.662   0.891  17.523  0.00  0.00    +0.000 A 
ATOM     26  C   UNL     1      -9.053   0.205  18.671  0.00  0.00    +0.000 A 
ATOM     27  H   UNL     1     -10.575  -2.483  17.170  0.00  0.00    +0.000 HD
ATOM     28  H   UNL     1      -9.891  -1.240  15.163  0.00  0.00    +0.000 HD
ATOM     29  H   UNL     1      -8.735   0.945  15.369  0.00  0.00    +0.000 HD
ATOM     30  H   UNL     1      -8.135   1.838  17.607  0.00  0.00    +0.000 HD
ATOM     31  H   UNL     1      -8.846   0.628  19.639  0.00  0.00    +0.000 HD
ENDBRANCH  19  21
ENDBRANCH   1  19
BRANCH   4  32
ATOM     32  O   UNL     1      -9.157   0.228  25.066  0.00  0.00    +0.000 OA
ATOM     33  H   UNL     1     -10.072   0.546  24.942  0.00  0.00    +0.000 HD
ENDBRANCH   4  32
BRANCH   5  34
ATOM     34  O   UNL     1      -8.998  -2.249  26.176  0.00  0.00    +0.000 OA
ATOM     35  H   UNL     1      -8.134  -2.026  26.578  0.00  0.00    +0.000 HD
ENDBRANCH   5  34
BRANCH  11  36
ATOM     36  O   UNL     1      -7.185  -5.945  18.238  0.00  0.00    +0.000 OA
ATOM     37  H   UNL     1      -7.699  -5.548  17.513  0.00  0.00    +0.000 HD
ENDBRANCH  11  36
BRANCH  12  38
ATOM     38  O   UNL     1      -9.503  -4.635  18.665  0.00  0.00    +0.000 OA
ATOM     39  H   UNL     1      -9.850  -5.493  18.983  0.00  0.00    +0.000 HD
ENDBRANCH  12  38
TORSDOF 6
ENDMDL
MODEL 9
REMARK VINA RESULT:    -6.795      3.683      6.052
REMARK INTER + INTRA:          -8.840
REMARK INTER:                  -8.310
REMARK INTRA:                  -0.530
REMARK UNBOUND:                -0.457
REMARK  Name = 
REMARK  6 active torsions:
REMARK  status: ('A' for Active; 'I' for Inactive)
REMARK    1  A    between atoms: S_2  and  C_4
REMARK    2  A    between atoms: S_2  and  N_10
REMARK    3  A    between atoms: C_13  and  O_14
REMARK    4  A    between atoms: C_15  and  O_16
REMARK    5  A    between atoms: C_22  and  O_23
REMARK    6  A    between atoms: C_24  and  O_25
REMARK                            x       y       z     vdW  Elec       q    Type
REMARK                         _______ _______ _______ _____ _____    ______ ____
ROOT
ATOM      1  N   UNL     1     -10.933  -3.155  16.809  0.00  0.00    +0.000 N 
ATOM      2  C   UNL     1     -10.633  -1.896  17.309  0.00  0.00    +0.000 A 
ATOM      3  C   UNL     1     -10.900  -1.216  18.506  0.00  0.00    +0.000 A 
ATOM      4  C   UNL     1     -10.066  -0.135  18.790  0.00  0.00    +0.000 A 
ATOM      5  C   UNL     1      -8.993   0.189  17.970  0.00  0.00    +0.000 A 
ATOM      6  C   UNL     1      -8.906  -0.329  16.686  0.00  0.00    +0.000 A 
ATOM      7  C   UNL     1      -9.842  -1.314  16.324  0.00  0.00    +0.000 A 
ATOM      8  C   UNL     1     -10.341  -1.880  15.125  0.00  0.00    +0.000 A 
ATOM      9  C   UNL     1     -10.502  -1.436  13.798  0.00  0.00    +0.000 A 
ATOM     10  C   UNL     1     -10.844  -2.368  12.818  0.00  0.00    +0.000 A 
ATOM     11  C   UNL     1     -10.775  -3.718  13.126  0.00  0.00    +0.000 A 
ATOM     12  C   UNL     1     -10.632  -4.159  14.444  0.00  0.00    +0.000 A 
ATOM     13  C   UNL     1     -10.660  -3.198  15.452  0.00  0.00    +0.000 A 
ATOM     14  H   UNL     1     -11.683  -1.528  19.186  0.00  0.00    +0.000 HD
ATOM     15  H   UNL     1      -8.118  -0.013  16.010  0.00  0.00    +0.000 HD
ATOM     16  H   UNL     1     -10.444  -0.376  13.567  0.00  0.00    +0.000 HD
ATOM     17  H   UNL     1     -11.089  -2.022  11.820  0.00  0.00    +0.000 HD
ENDROOT
BRANCH   1  19
ATOM     18  O   UNL     1     -11.821  -5.548  17.058  0.00  0.00    +0.000 OA
ATOM     19  S   UNL     1     -11.176  -4.498  17.832  0.00  0.00    +0.000 S 
ATOM     20  O   UNL     1     -11.799  -3.987  19.042  0.00  0.00    +0.000 OA
BRANCH  19  21
ATOM     21  C   UNL     1      -9.493  -4.932  18.214  0.00  0.00    +0.000 A 
ATOM     22  C   UNL     1      -8.820  -4.245  19.232  0.00  0.00    +0.000 A 
ATOM     23  C   UNL     1      -7.625  -4.761  19.715  0.00  0.00    +0.000 A 
ATOM     24  C   UNL     1      -7.081  -5.929  19.166  0.00  0.00    +0.000 A 
ATOM     25  C   UNL     1      -7.718  -6.562  18.094  0.00  0.00    +0.000 A 
ATOM     26  C   UNL     1      -8.928  -6.067  17.613  0.00  0.00    +0.000 A 
ATOM     27  H   UNL     1      -9.241  -3.360  19.704  0.00  0.00    +0.000 HD
ATOM     28  H   UNL     1      -7.118  -4.269  20.544  0.00  0.00    +0.000 HD
ATOM     29  H   UNL     1      -6.169  -6.348  19.577  0.00  0.00    +0.000 HD
ATOM     30  H   UNL     1      -7.286  -7.460  17.658  0.00  0.00    +0.000 HD
ATOM     31  H   UNL     1      -9.440  -6.589  16.822  0.00  0.00    +0.000 HD
ENDBRANCH  19  21
ENDBRANCH   1  19
BRANCH   4  32
ATOM     32  O   UNL     1     -10.275   0.638  19.898  0.00  0.00    +0.000 OA
ATOM     33  H   UNL     1      -9.659   0.307  20.579  0.00  0.00    +0.000 HD
ENDBRANCH   4  32
BRANCH   5  34
ATOM     34  O   UNL     1      -8.040   1.061  18.410  0.00  0.00    +0.000 OA
ATOM     35  H   UNL     1      -7.867   1.643  17.643  0.00  0.00    +0.000 HD
ENDBRANCH   5  34
BRANCH  11  36
ATOM     36  O   UNL     1     -10.841  -4.674  12.147  0.00  0.00    +0.000 OA
ATOM     37  H   UNL     1     -10.421  -4.312  11.348  0.00  0.00    +0.000 HD
ENDBRANCH  11  36
BRANCH  12  38
ATOM     38  O   UNL     1     -10.406  -5.486  14.681  0.00  0.00    +0.000 OA
ATOM     39  H   UNL     1     -10.927  -5.690  15.483  0.00  0.00    +0.000 HD
ENDBRANCH  12  38
TORSDOF 6
ENDMDL
