
 OpenBabel01112422533D

 48 51  0  0  1  0  0  0  0  0999 V2000
    1.4903    0.1591   -1.5826 C   0  0  0  0  0  0  0  0  0  0  0  0
    2.7922    0.0552   -0.8812 C   0  0  0  0  0  0  0  0  0  0  0  0
    3.5044    1.1485   -0.5777 N   0  0  0  0  0  0  0  0  0  0  0  0
    4.5960    0.6624    0.0388 N   0  0  0  0  0  0  0  0  0  0  0  0
    4.6170   -0.6993    0.1454 C   0  0  0  0  0  0  0  0  0  0  0  0
    5.5274   -1.5819    0.6995 C   0  0  0  0  0  0  0  0  0  0  0  0
    5.2598   -2.9119    0.6467 N   0  0  0  0  0  0  0  0  0  0  0  0
    4.1230   -3.3622    0.0506 C   0  0  0  0  0  0  0  0  0  0  0  0
    3.9372   -4.8220    0.0313 C   0  0  0  0  0  0  0  0  0  0  0  0
    4.4491   -5.6503    1.0281 C   0  0  0  0  0  0  0  0  0  0  0  0
    4.2632   -6.9961    1.0922 N   0  0  0  0  0  0  0  0  0  0  0  0
    3.5321   -7.5590    0.1017 C   0  0  0  0  0  0  0  0  0  0  0  0
    2.9911   -6.8452   -0.9531 C   0  0  0  0  0  0  0  0  0  0  0  0
    2.2471   -7.3178   -1.9895 O   0  0  0  0  0  0  0  0  0  0  0  0
    1.9495   -8.7169   -2.0122 C   0  0  0  0  0  0  0  0  0  0  0  0
    1.1206   -8.9903   -3.2877 C   0  0  1  0  0  0  0  0  0  0  0  0
    1.8912   -8.6021   -4.4873 N   0  0  0  0  0  0  0  0  0  0  0  0
    0.6721  -10.4670   -3.3342 C   0  0  0  0  0  0  0  0  0  0  0  0
   -0.1378  -10.8355   -4.5581 C   0  0  0  0  0  0  0  0  0  0  0  0
    0.3244  -11.8272   -5.4348 C   0  0  0  0  0  0  0  0  0  0  0  0
   -0.3847  -12.1338   -6.5973 C   0  0  0  0  0  0  0  0  0  0  0  0
   -1.5671  -11.4590   -6.8922 C   0  0  0  0  0  0  0  0  0  0  0  0
   -2.0519  -10.4916   -6.0148 C   0  0  0  0  0  0  0  0  0  0  0  0
   -1.3459  -10.1863   -4.8495 C   0  0  0  0  0  0  0  0  0  0  0  0
    3.2135   -5.4695   -0.9816 C   0  0  0  0  0  0  0  0  0  0  0  0
    3.1757   -2.4994   -0.5045 C   0  0  0  0  0  0  0  0  0  0  0  0
    3.4447   -1.1292   -0.4538 C   0  0  0  0  0  0  0  0  0  0  0  0
    1.2249    1.1984   -1.7981 H   0  0  0  0  0  0  0  0  0  0  0  0
    0.6936   -0.2751   -0.9694 H   0  0  0  0  0  0  0  0  0  0  0  0
    1.5251   -0.3861   -2.5318 H   0  0  0  0  0  0  0  0  0  0  0  0
    5.2938    1.3227    0.3645 H   0  0  0  0  0  0  0  0  0  0  0  0
    6.4502   -1.2817    1.1791 H   0  0  0  0  0  0  0  0  0  0  0  0
    5.0355   -5.2387    1.8475 H   0  0  0  0  0  0  0  0  0  0  0  0
    3.4052   -8.6305    0.2061 H   0  0  0  0  0  0  0  0  0  0  0  0
    1.3637   -8.9855   -1.1249 H   0  0  0  0  0  0  0  0  0  0  0  0
    2.8790   -9.2996   -2.0355 H   0  0  0  0  0  0  0  0  0  0  0  0
    0.2385   -8.3386   -3.2641 H   0  0  0  0  0  0  0  0  0  0  0  0
    2.7181   -9.1882   -4.5790 H   0  0  0  0  0  0  0  0  0  0  0  0
    2.2336   -7.6490   -4.3509 H   0  0  0  0  0  0  0  0  0  0  0  0
    0.0663  -10.6955   -2.4473 H   0  0  0  0  0  0  0  0  0  0  0  0
    1.5566  -11.1146   -3.2701 H   0  0  0  0  0  0  0  0  0  0  0  0
    1.2527  -12.3544   -5.2297 H   0  0  0  0  0  0  0  0  0  0  0  0
   -0.0056  -12.8897   -7.2795 H   0  0  0  0  0  0  0  0  0  0  0  0
   -2.1072  -11.6829   -7.8079 H   0  0  0  0  0  0  0  0  0  0  0  0
   -2.9733   -9.9633   -6.2445 H   0  0  0  0  0  0  0  0  0  0  0  0
   -1.7355   -9.4198   -4.1845 H   0  0  0  0  0  0  0  0  0  0  0  0
    2.8110   -4.9067   -1.8208 H   0  0  0  0  0  0  0  0  0  0  0  0
    2.2573   -2.8600   -0.9498 H   0  0  0  0  0  0  0  0  0  0  0  0
  1  2  1  0  0  0  0
  1 28  1  0  0  0  0
  1 29  1  0  0  0  0
  1 30  1  0  0  0  0
  2  3  2  0  0  0  0
  2 27  1  0  0  0  0
  3  4  1  0  0  0  0
  4  5  1  0  0  0  0
  4 31  1  0  0  0  0
  5  6  1  0  0  0  0
  5 27  2  0  0  0  0
  6  7  2  0  0  0  0
  6 32  1  0  0  0  0
  7  8  1  0  0  0  0
  8  9  1  0  0  0  0
  8 26  2  0  0  0  0
  9 10  1  0  0  0  0
  9 25  2  0  0  0  0
 10 11  2  0  0  0  0
 10 33  1  0  0  0  0
 11 12  1  0  0  0  0
 12 13  2  0  0  0  0
 12 34  1  0  0  0  0
 13 14  1  0  0  0  0
 13 25  1  0  0  0  0
 14 15  1  0  0  0  0
 15 16  1  0  0  0  0
 15 35  1  0  0  0  0
 15 36  1  0  0  0  0
 16 17  1  0  0  0  0
 16 18  1  0  0  0  0
 16 37  1  1  0  0  0
 17 38  1  0  0  0  0
 17 39  1  0  0  0  0
 18 19  1  0  0  0  0
 18 40  1  0  0  0  0
 18 41  1  0  0  0  0
 19 20  1  0  0  0  0
 19 24  2  0  0  0  0
 20 21  2  0  0  0  0
 20 42  1  0  0  0  0
 21 22  1  0  0  0  0
 21 43  1  0  0  0  0
 22 23  2  0  0  0  0
 22 44  1  0  0  0  0
 23 24  1  0  0  0  0
 23 45  1  0  0  0  0
 24 46  1  0  0  0  0
 25 47  1  0  0  0  0
 26 27  1  0  0  0  0
 26 48  1  0  0  0  0
M  END
$$$$
