
 OpenBabel01112422493D

 36 41  0  0  0  0  0  0  0  0999 V2000
    0.8847    0.1123   -0.0429 O   0  0  0  0  0  0  0  0  0  0  0  0
    2.1036    0.1884   -0.0316 C   0  0  0  0  0  0  0  0  0  0  0  0
    2.8845   -0.9185   -0.0183 N   0  0  0  0  0  0  0  0  0  0  0  0
    4.2325   -0.7236   -0.0534 C   0  0  0  0  0  0  0  0  0  0  0  0
    4.9551   -1.7051   -0.0997 O   0  0  0  0  0  0  0  0  0  0  0  0
    4.3977    0.7050   -0.0426 C   0  0  0  0  0  0  0  0  0  0  0  0
    3.0575    1.2553   -0.0357 C   0  0  0  0  0  0  0  0  0  0  0  0
    2.8640    2.6542   -0.0381 C   0  0  0  0  0  0  0  0  0  0  0  0
    1.6569    3.3539   -0.0396 C   0  0  0  0  0  0  0  0  0  0  0  0
    0.2721    3.0908   -0.0410 C   0  0  0  0  0  0  0  0  0  0  0  0
   -0.6469    4.1459   -0.0427 C   0  0  0  0  0  0  0  0  0  0  0  0
   -0.2106    5.4641   -0.0426 C   0  0  0  0  0  0  0  0  0  0  0  0
    1.1544    5.7670   -0.0414 C   0  0  0  0  0  0  0  0  0  0  0  0
    2.0696    4.7020   -0.0405 C   0  0  0  0  0  0  0  0  0  0  0  0
    3.4644    4.7319   -0.0404 N   0  0  0  0  0  0  0  0  0  0  0  0
    3.9534    3.4540   -0.0398 C   0  0  0  0  0  0  0  0  0  0  0  0
    5.2299    2.9418   -0.0409 C   0  0  0  0  0  0  0  0  0  0  0  0
    6.4118    3.6039   -0.0426 N   0  0  0  0  0  0  0  0  0  0  0  0
    7.4564    2.6975   -0.0437 C   0  0  0  0  0  0  0  0  0  0  0  0
    8.8261    3.0138   -0.0454 C   0  0  0  0  0  0  0  0  0  0  0  0
    9.7508    1.9855   -0.0460 C   0  0  0  0  0  0  0  0  0  0  0  0
    9.3100    0.6783   -0.0421 C   0  0  0  0  0  0  0  0  0  0  0  0
    7.9337    0.3482   -0.0363 C   0  0  0  0  0  0  0  0  0  0  0  0
    7.7010   -1.5233   -0.0116 Br  0  0  0  0  0  0  0  0  0  0  0  0
    6.9341    1.3702   -0.0411 C   0  0  0  0  0  0  0  0  0  0  0  0
    5.5246    1.6026   -0.0421 C   0  0  0  0  0  0  0  0  0  0  0  0
    2.4936   -1.8444   -0.0374 H   0  0  0  0  0  0  0  0  0  0  0  0
   -0.1204    2.0814   -0.0417 H   0  0  0  0  0  0  0  0  0  0  0  0
   -1.7117    3.9219   -0.0444 H   0  0  0  0  0  0  0  0  0  0  0  0
   -0.9437    6.2676   -0.0436 H   0  0  0  0  0  0  0  0  0  0  0  0
    1.4840    6.8009   -0.0417 H   0  0  0  0  0  0  0  0  0  0  0  0
    4.0081    5.5818   -0.0412 H   0  0  0  0  0  0  0  0  0  0  0  0
    6.5332    4.6060   -0.0428 H   0  0  0  0  0  0  0  0  0  0  0  0
    9.1658    4.0458   -0.0459 H   0  0  0  0  0  0  0  0  0  0  0  0
   10.8164    2.1981   -0.0472 H   0  0  0  0  0  0  0  0  0  0  0  0
   10.0595   -0.1132   -0.0409 H   0  0  0  0  0  0  0  0  0  0  0  0
  1  2  2  0  0  0  0
  2  3  1  0  0  0  0
  2  7  1  0  0  0  0
  3  4  1  0  0  0  0
  3 27  1  0  0  0  0
  4  5  2  0  0  0  0
  4  6  1  0  0  0  0
  6  7  1  0  0  0  0
  6 26  2  0  0  0  0
  7  8  2  0  0  0  0
  8  9  1  0  0  0  0
  8 16  1  0  0  0  0
  9 10  1  0  0  0  0
  9 14  2  0  0  0  0
 10 11  2  0  0  0  0
 10 28  1  0  0  0  0
 11 12  1  0  0  0  0
 11 29  1  0  0  0  0
 12 13  2  0  0  0  0
 12 30  1  0  0  0  0
 13 14  1  0  0  0  0
 13 31  1  0  0  0  0
 14 15  1  0  0  0  0
 15 16  1  0  0  0  0
 15 32  1  0  0  0  0
 16 17  2  0  0  0  0
 17 18  1  0  0  0  0
 17 26  1  0  0  0  0
 18 19  1  0  0  0  0
 18 33  1  0  0  0  0
 19 20  1  0  0  0  0
 19 25  2  0  0  0  0
 20 21  2  0  0  0  0
 20 34  1  0  0  0  0
 21 22  1  0  0  0  0
 21 35  1  0  0  0  0
 22 23  2  0  0  0  0
 22 36  1  0  0  0  0
 23 24  1  0  0  0  0
 23 25  1  0  0  0  0
 25 26  1  0  0  0  0
M  END
$$$$
