REMARK  Name = 
REMARK  7 active torsions:
REMARK  status: ('A' for Active; 'I' for Inactive)
REMARK    1  A    between atoms: C_1  and  O_2
REMARK    2  A    between atoms: O_2  and  C_3
REMARK    3  A    between atoms: C_7  and  C_8
REMARK    4  A    between atoms: C_8  and  C_9
REMARK    5  A    between atoms: C_8  and  N_10
REMARK    6  A    between atoms: C_11  and  C_13
REMARK    7  A    between atoms: C_16  and  C_17
REMARK                            x       y       z     vdW  Elec       q    Type
REMARK                         _______ _______ _______ _____ _____    ______ ____
ROOT
ATOM      1  N   UNL     1      -0.188  -0.562  -1.494  0.00  0.00    +0.000 N 
ATOM      2  C   UNL     1       1.136  -0.218  -1.658  0.00  0.00    +0.000 C 
ATOM      3  O   UNL     1       1.781  -0.473  -2.671  0.00  0.00    +0.000 OA
ATOM      4  H   UNL     1      -0.713  -0.194  -0.716  0.00  0.00    +0.000 HD
ENDROOT
BRANCH   2   5
ATOM      5  C   UNL     1       1.790   0.513  -0.533  0.00  0.00    +0.000 A 
ATOM      6  C   UNL     1       1.345   0.393   0.786  0.00  0.00    +0.000 A 
ATOM      7  C   UNL     1       2.015   1.064   1.820  0.00  0.00    +0.000 A 
ATOM      8  C   UNL     1       3.139   1.873   1.571  0.00  0.00    +0.000 A 
ATOM      9  C   UNL     1       3.566   1.978   0.234  0.00  0.00    +0.000 A 
ATOM     10  C   UNL     1       2.909   1.304  -0.802  0.00  0.00    +0.000 A 
ATOM     11  H   UNL     1       0.505  -0.244   1.044  0.00  0.00    +0.000 HD
ATOM     12  H   UNL     1       1.650   0.920   2.835  0.00  0.00    +0.000 HD
ATOM     13  H   UNL     1       4.424   2.597  -0.028  0.00  0.00    +0.000 HD
ATOM     14  H   UNL     1       3.281   1.401  -1.822  0.00  0.00    +0.000 HD
BRANCH   8  15
ATOM     15  C   UNL     1       3.842   2.583   2.665  0.00  0.00    +0.000 A 
ATOM     16  C   UNL     1       5.223   2.823   2.618  0.00  0.00    +0.000 A 
ATOM     17  C   UNL     1       5.835   3.523   3.649  0.00  0.00    +0.000 A 
ATOM     18  N   UNL     1       5.182   3.990   4.729  0.00  0.00    +0.000 NA
ATOM     19  C   UNL     1       3.860   3.742   4.774  0.00  0.00    +0.000 A 
ATOM     20  F   UNL     1       3.182   4.191   5.840  0.00  0.00    +0.000 F 
ATOM     21  C   UNL     1       3.160   3.060   3.792  0.00  0.00    +0.000 A 
ATOM     22  H   UNL     1       5.836   2.469   1.795  0.00  0.00    +0.000 HD
ATOM     23  H   UNL     1       6.901   3.731   3.625  0.00  0.00    +0.000 HD
ATOM     24  H   UNL     1       2.092   2.931   3.921  0.00  0.00    +0.000 HD
ENDBRANCH   8  15
ENDBRANCH   2   5
BRANCH   1  25
ATOM     25  C   UNL     1      -0.933  -1.248  -2.541  0.00  0.00    +0.000 C 
ATOM     26  H   UNL     1      -0.242  -1.959  -3.012  0.00  0.00    +0.000 HD
BRANCH  25  31
ATOM     27  C   UNL     1      -4.333  -2.084  -0.939  0.00  0.00    +0.000 A 
ATOM     28  C   UNL     1      -4.330  -3.476  -1.020  0.00  0.00    +0.000 A 
ATOM     29  C   UNL     1      -3.220  -4.142  -1.544  0.00  0.00    +0.000 A 
ATOM     30  C   UNL     1      -2.115  -3.422  -2.002  0.00  0.00    +0.000 A 
ATOM     31  C   UNL     1      -2.106  -2.020  -1.955  0.00  0.00    +0.000 A 
ATOM     32  C   UNL     1      -3.220  -1.367  -1.397  0.00  0.00    +0.000 A 
ATOM     33  H   UNL     1      -5.174  -4.072  -0.692  0.00  0.00    +0.000 HD
ATOM     34  H   UNL     1      -3.225  -5.227  -1.610  0.00  0.00    +0.000 HD
ATOM     35  H   UNL     1      -1.267  -3.965  -2.414  0.00  0.00    +0.000 HD
ATOM     36  H   UNL     1      -3.246  -0.282  -1.338  0.00  0.00    +0.000 HD
BRANCH  27  37
ATOM     37  O   UNL     1      -5.354  -1.312  -0.456  0.00  0.00    +0.000 OA
BRANCH  37  38
ATOM     38  C   UNL     1      -6.519  -1.996  -0.007  0.00  0.00    +0.000 C 
ATOM     39  H   UNL     1      -7.268  -1.244   0.259  0.00  0.00    +0.000 HD
ATOM     40  H   UNL     1      -6.301  -2.585   0.890  0.00  0.00    +0.000 HD
ATOM     41  H   UNL     1      -6.949  -2.622  -0.797  0.00  0.00    +0.000 HD
ENDBRANCH  37  38
ENDBRANCH  27  37
ENDBRANCH  25  31
BRANCH  25  42
ATOM     42  C   UNL     1      -1.397  -0.281  -3.634  0.00  0.00    +0.000 C 
ATOM     43  H   UNL     1      -2.076   0.486  -3.245  0.00  0.00    +0.000 HD
ATOM     44  H   UNL     1      -1.925  -0.820  -4.429  0.00  0.00    +0.000 HD
ATOM     45  H   UNL     1      -0.549   0.242  -4.089  0.00  0.00    +0.000 HD
ENDBRANCH  25  42
ENDBRANCH   1  25
TORSDOF 7
