MODEL 1
REMARK VINA RESULT:   -10.098      0.000      0.000
REMARK INTER + INTRA:         -14.861
REMARK INTER:                 -13.935
REMARK INTRA:                  -0.926
REMARK UNBOUND:                -0.926
REMARK  Name = 
REMARK  8 active torsions:
REMARK  status: ('A' for Active; 'I' for Inactive)
REMARK    1  A    between atoms: C_1  and  O_2
REMARK    2  A    between atoms: O_2  and  C_3
REMARK    3  A    between atoms: N_17  and  C_18
REMARK    4  A    between atoms: N_21  and  C_22
REMARK    5  A    between atoms: C_22  and  C_23
REMARK    6  A    between atoms: C_23  and  N_24
REMARK    7  A    between atoms: N_24  and  C_25
REMARK    8  A    between atoms: C_28  and  O_29
REMARK                            x       y       z     vdW  Elec       q    Type
REMARK                         _______ _______ _______ _____ _____    ______ ____
ROOT
ATOM      1  C   UNL     1      -7.936  -3.385  22.011  0.00  0.00    +0.000 A 
ATOM      2  C   UNL     1      -8.519  -2.148  21.769  0.00  0.00    +0.000 A 
ATOM      3  C   UNL     1      -9.209  -1.909  20.577  0.00  0.00    +0.000 A 
ATOM      4  C   UNL     1      -9.317  -2.925  19.612  0.00  0.00    +0.000 A 
ATOM      5  C   UNL     1      -9.959  -3.129  18.398  0.00  0.00    +0.000 A 
ATOM      6  C   UNL     1     -10.713  -2.128  17.753  0.00  0.00    +0.000 A 
ATOM      7  C   UNL     1     -11.483  -2.549  16.656  0.00  0.00    +0.000 A 
ATOM      8  C   UNL     1     -11.209  -3.706  15.934  0.00  0.00    +0.000 A 
ATOM      9  C   UNL     1     -10.290  -4.640  16.499  0.00  0.00    +0.000 A 
ATOM     10  C   UNL     1      -9.701  -5.600  15.668  0.00  0.00    +0.000 A 
ATOM     11  C   UNL     1      -9.528  -5.289  14.309  0.00  0.00    +0.000 A 
ATOM     12  C   UNL     1     -10.133  -4.103  13.885  0.00  0.00    +0.000 A 
ATOM     13  C   UNL     1      -9.640  -2.830  13.402  0.00  0.00    +0.000 A 
ATOM     14  C   UNL     1     -10.726  -1.967  13.364  0.00  0.00    +0.000 A 
ATOM     15  N   UNL     1     -11.805  -2.818  13.561  0.00  0.00    +0.000 N 
ATOM     16  C   UNL     1     -11.328  -3.717  14.525  0.00  0.00    +0.000 A 
ATOM     17  C   UNL     1      -9.765  -4.358  17.808  0.00  0.00    +0.000 A 
ATOM     18  N   UNL     1      -8.850  -4.948  18.690  0.00  0.00    +0.000 N 
ATOM     19  C   UNL     1      -8.664  -4.144  19.836  0.00  0.00    +0.000 A 
ATOM     20  C   UNL     1      -7.952  -4.380  21.027  0.00  0.00    +0.000 A 
ATOM     21  C   UNL     1     -12.247  -1.421  16.213  0.00  0.00    +0.000 C 
ATOM     22  O   UNL     1     -13.236  -1.306  15.500  0.00  0.00    +0.000 OA
ATOM     23  N   UNL     1     -11.611  -0.376  16.810  0.00  0.00    +0.000 N 
ATOM     24  C   UNL     1     -10.708  -0.699  17.779  0.00  0.00    +0.000 C 
ATOM     25  O   UNL     1     -10.019   0.113  18.349  0.00  0.00    +0.000 OA
ATOM     26  H   UNL     1      -8.464  -1.341  22.491  0.00  0.00    +0.000 HD
ATOM     27  H   UNL     1      -9.675  -0.940  20.435  0.00  0.00    +0.000 HD
ATOM     28  H   UNL     1      -9.124  -6.438  16.037  0.00  0.00    +0.000 HD
ATOM     29  H   UNL     1      -8.756  -5.773  13.721  0.00  0.00    +0.000 HD
ATOM     30  H   UNL     1      -8.607  -2.546  13.260  0.00  0.00    +0.000 HD
ATOM     31  H   UNL     1     -10.871  -0.925  13.117  0.00  0.00    +0.000 HD
ATOM     32  H   UNL     1      -7.452  -5.324  21.216  0.00  0.00    +0.000 HD
ATOM     33  H   UNL     1     -11.533   0.496  16.311  0.00  0.00    +0.000 HD
ENDROOT
BRANCH  15  34
ATOM     34  C   UNL     1     -12.526  -3.272  12.366  0.00  0.00    +0.000 C 
ATOM     35  H   UNL     1     -13.450  -2.698  12.278  0.00  0.00    +0.000 HD
ATOM     36  H   UNL     1     -12.722  -4.344  12.437  0.00  0.00    +0.000 HD
ATOM     37  H   UNL     1     -11.890  -3.075  11.492  0.00  0.00    +0.000 HD
ENDBRANCH  15  34
BRANCH  18  38
ATOM     38  C   UNL     1      -8.182  -6.235  18.527  0.00  0.00    +0.000 C 
ATOM     39  H   UNL     1      -7.225  -6.158  19.053  0.00  0.00    +0.000 HD
ATOM     40  H   UNL     1      -7.917  -6.377  17.473  0.00  0.00    +0.000 HD
BRANCH  38  41
ATOM     41  C   UNL     1      -8.973  -7.458  19.044  0.00  0.00    +0.000 C 
ATOM     42  H   UNL     1      -9.574  -7.131  19.891  0.00  0.00    +0.000 HD
ATOM     43  H   UNL     1      -8.243  -8.190  19.416  0.00  0.00    +0.000 HD
BRANCH  41  44
ATOM     44  N   UNL     1      -9.863  -8.127  18.088  0.00  0.00    +0.000 NA
ATOM     45  H   UNL     1     -10.318  -7.444  17.483  0.00  0.00    +0.000 HD
BRANCH  44  46
ATOM     46  C   UNL     1      -9.171  -9.145  17.271  0.00  0.00    +0.000 C 
ATOM     47  C   UNL     1      -9.092 -10.514  17.978  0.00  0.00    +0.000 C 
ATOM     48  C   UNL     1      -8.485 -11.595  17.093  0.00  0.00    +0.000 C 
ATOM     49  C   UNL     1      -9.236 -11.721  15.775  0.00  0.00    +0.000 C 
ATOM     50  C   UNL     1      -9.277 -10.382  15.045  0.00  0.00    +0.000 C 
ATOM     51  C   UNL     1      -9.892  -9.284  15.916  0.00  0.00    +0.000 C 
ATOM     52  H   UNL     1      -8.149  -8.796  17.067  0.00  0.00    +0.000 HD
ATOM     53  H   UNL     1     -10.096 -10.825  18.296  0.00  0.00    +0.000 HD
ATOM     54  H   UNL     1      -8.474 -10.451  18.881  0.00  0.00    +0.000 HD
ATOM     55  H   UNL     1      -8.492 -12.558  17.620  0.00  0.00    +0.000 HD
ATOM     56  H   UNL     1      -7.428 -11.370  16.903  0.00  0.00    +0.000 HD
ATOM     57  H   UNL     1     -10.257 -12.070  15.965  0.00  0.00    +0.000 HD
ATOM     58  H   UNL     1      -9.843 -10.488  14.111  0.00  0.00    +0.000 HD
ATOM     59  H   UNL     1      -8.262 -10.092  14.742  0.00  0.00    +0.000 HD
ATOM     60  H   UNL     1     -10.953  -9.515  16.077  0.00  0.00    +0.000 HD
ATOM     61  H   UNL     1      -9.854  -8.334  15.367  0.00  0.00    +0.000 HD
BRANCH  49  62
ATOM     62  O   UNL     1      -8.602 -12.699  14.959  0.00  0.00    +0.000 OA
ATOM     63  H   UNL     1      -7.809 -12.300  14.563  0.00  0.00    +0.000 HD
ENDBRANCH  49  62
ENDBRANCH  44  46
ENDBRANCH  41  44
ENDBRANCH  38  41
ENDBRANCH  18  38
BRANCH   1  64
ATOM     64  O   UNL     1      -7.298  -3.721  23.179  0.00  0.00    +0.000 OA
BRANCH  64  65
ATOM     65  C   UNL     1      -8.125  -3.672  24.341  0.00  0.00    +0.000 C 
ATOM     66  H   UNL     1      -8.860  -2.875  24.198  0.00  0.00    +0.000 HD
ATOM     67  H   UNL     1      -7.541  -3.431  25.237  0.00  0.00    +0.000 HD
ATOM     68  H   UNL     1      -8.676  -4.608  24.473  0.00  0.00    +0.000 HD
ENDBRANCH  64  65
ENDBRANCH   1  64
TORSDOF 8
ENDMDL
MODEL 2
REMARK VINA RESULT:    -9.755      1.942      2.803
REMARK INTER + INTRA:         -14.387
REMARK INTER:                 -14.232
REMARK INTRA:                  -0.156
REMARK UNBOUND:                -0.926
REMARK  Name = 
REMARK  8 active torsions:
REMARK  status: ('A' for Active; 'I' for Inactive)
REMARK    1  A    between atoms: C_1  and  O_2
REMARK    2  A    between atoms: O_2  and  C_3
REMARK    3  A    between atoms: N_17  and  C_18
REMARK    4  A    between atoms: N_21  and  C_22
REMARK    5  A    between atoms: C_22  and  C_23
REMARK    6  A    between atoms: C_23  and  N_24
REMARK    7  A    between atoms: N_24  and  C_25
REMARK    8  A    between atoms: C_28  and  O_29
REMARK                            x       y       z     vdW  Elec       q    Type
REMARK                         _______ _______ _______ _____ _____    ______ ____
ROOT
ATOM      1  C   UNL     1      -8.322  -6.665  19.722  0.00  0.00    +0.000 A 
ATOM      2  C   UNL     1      -8.224  -5.376  20.229  0.00  0.00    +0.000 A 
ATOM      3  C   UNL     1      -8.844  -4.306  19.577  0.00  0.00    +0.000 A 
ATOM      4  C   UNL     1      -9.572  -4.531  18.396  0.00  0.00    +0.000 A 
ATOM      5  C   UNL     1     -10.378  -3.807  17.529  0.00  0.00    +0.000 A 
ATOM      6  C   UNL     1     -10.598  -2.421  17.665  0.00  0.00    +0.000 A 
ATOM      7  C   UNL     1     -11.607  -1.875  16.854  0.00  0.00    +0.000 A 
ATOM      8  C   UNL     1     -12.050  -2.479  15.682  0.00  0.00    +0.000 A 
ATOM      9  C   UNL     1     -11.667  -3.832  15.445  0.00  0.00    +0.000 A 
ATOM     10  C   UNL     1     -11.755  -4.347  14.146  0.00  0.00    +0.000 A 
ATOM     11  C   UNL     1     -11.624  -3.456  13.067  0.00  0.00    +0.000 A 
ATOM     12  C   UNL     1     -11.595  -2.102  13.410  0.00  0.00    +0.000 A 
ATOM     13  C   UNL     1     -10.591  -1.060  13.337  0.00  0.00    +0.000 A 
ATOM     14  C   UNL     1     -11.086   0.023  14.049  0.00  0.00    +0.000 A 
ATOM     15  N   UNL     1     -12.412  -0.327  14.264  0.00  0.00    +0.000 N 
ATOM     16  C   UNL     1     -12.337  -1.699  14.538  0.00  0.00    +0.000 A 
ATOM     17  C   UNL     1     -10.910  -4.505  16.467  0.00  0.00    +0.000 A 
ATOM     18  N   UNL     1     -10.315  -5.763  16.636  0.00  0.00    +0.000 N 
ATOM     19  C   UNL     1      -9.604  -5.823  17.855  0.00  0.00    +0.000 A 
ATOM     20  C   UNL     1      -8.964  -6.898  18.501  0.00  0.00    +0.000 A 
ATOM     21  C   UNL     1     -11.745  -0.496  17.215  0.00  0.00    +0.000 C 
ATOM     22  O   UNL     1     -12.621   0.338  17.023  0.00  0.00    +0.000 OA
ATOM     23  N   UNL     1     -10.598  -0.251  17.906  0.00  0.00    +0.000 N 
ATOM     24  C   UNL     1      -9.867  -1.347  18.261  0.00  0.00    +0.000 C 
ATOM     25  O   UNL     1      -8.796  -1.285  18.815  0.00  0.00    +0.000 OA
ATOM     26  H   UNL     1      -7.677  -5.161  21.141  0.00  0.00    +0.000 HD
ATOM     27  H   UNL     1      -8.770  -3.318  20.017  0.00  0.00    +0.000 HD
ATOM     28  H   UNL     1     -11.640  -5.396  13.908  0.00  0.00    +0.000 HD
ATOM     29  H   UNL     1     -11.284  -3.803  12.098  0.00  0.00    +0.000 HD
ATOM     30  H   UNL     1      -9.584  -1.154  12.956  0.00  0.00    +0.000 HD
ATOM     31  H   UNL     1     -10.714   1.004  14.314  0.00  0.00    +0.000 HD
ATOM     32  H   UNL     1      -8.991  -7.904  18.098  0.00  0.00    +0.000 HD
ATOM     33  H   UNL     1     -10.154   0.648  17.809  0.00  0.00    +0.000 HD
ENDROOT
BRANCH  15  34
ATOM     34  C   UNL     1     -13.409   0.228  13.340  0.00  0.00    +0.000 C 
ATOM     35  H   UNL     1     -13.154  -0.083  12.326  0.00  0.00    +0.000 HD
ATOM     36  H   UNL     1     -13.436   1.315  13.434  0.00  0.00    +0.000 HD
ATOM     37  H   UNL     1     -14.389  -0.186  13.613  0.00  0.00    +0.000 HD
ENDBRANCH  15  34
BRANCH  18  38
ATOM     38  C   UNL     1     -10.417  -6.908  15.738  0.00  0.00    +0.000 C 
ATOM     39  H   UNL     1     -10.681  -6.510  14.754  0.00  0.00    +0.000 HD
ATOM     40  H   UNL     1     -11.271  -7.527  16.034  0.00  0.00    +0.000 HD
BRANCH  38  41
ATOM     41  C   UNL     1      -9.144  -7.778  15.632  0.00  0.00    +0.000 C 
ATOM     42  H   UNL     1      -8.947  -8.199  16.616  0.00  0.00    +0.000 HD
ATOM     43  H   UNL     1      -8.308  -7.112  15.380  0.00  0.00    +0.000 HD
BRANCH  41  44
ATOM     44  N   UNL     1      -9.172  -8.882  14.664  0.00  0.00    +0.000 NA
ATOM     45  H   UNL     1      -8.312  -8.902  14.117  0.00  0.00    +0.000 HD
BRANCH  44  46
ATOM     46  C   UNL     1      -9.397 -10.197  15.299  0.00  0.00    +0.000 C 
ATOM     47  C   UNL     1      -8.439 -11.281  14.763  0.00  0.00    +0.000 C 
ATOM     48  C   UNL     1      -8.586 -12.607  15.498  0.00  0.00    +0.000 C 
ATOM     49  C   UNL     1      -8.405 -12.435  16.999  0.00  0.00    +0.000 C 
ATOM     50  C   UNL     1      -9.383 -11.399  17.547  0.00  0.00    +0.000 C 
ATOM     51  C   UNL     1      -9.243 -10.056  16.827  0.00  0.00    +0.000 C 
ATOM     52  H   UNL     1     -10.430 -10.512  15.099  0.00  0.00    +0.000 HD
ATOM     53  H   UNL     1      -7.401 -10.933  14.847  0.00  0.00    +0.000 HD
ATOM     54  H   UNL     1      -8.627 -11.477  13.702  0.00  0.00    +0.000 HD
ATOM     55  H   UNL     1      -7.856 -13.331  15.114  0.00  0.00    +0.000 HD
ATOM     56  H   UNL     1      -9.572 -13.042  15.286  0.00  0.00    +0.000 HD
ATOM     57  H   UNL     1      -7.377 -12.121  17.212  0.00  0.00    +0.000 HD
ATOM     58  H   UNL     1      -9.219 -11.271  18.624  0.00  0.00    +0.000 HD
ATOM     59  H   UNL     1     -10.412 -11.770  17.447  0.00  0.00    +0.000 HD
ATOM     60  H   UNL     1      -8.261  -9.627  17.067  0.00  0.00    +0.000 HD
ATOM     61  H   UNL     1      -9.998  -9.363  17.221  0.00  0.00    +0.000 HD
BRANCH  49  62
ATOM     62  O   UNL     1      -8.608 -13.684  17.649  0.00  0.00    +0.000 OA
ATOM     63  H   UNL     1      -9.565 -13.840  17.721  0.00  0.00    +0.000 HD
ENDBRANCH  49  62
ENDBRANCH  44  46
ENDBRANCH  41  44
ENDBRANCH  38  41
ENDBRANCH  18  38
BRANCH   1  64
ATOM     64  O   UNL     1      -7.798  -7.776  20.335  0.00  0.00    +0.000 OA
BRANCH  64  65
ATOM     65  C   UNL     1      -8.682  -8.894  20.390  0.00  0.00    +0.000 C 
ATOM     66  H   UNL     1      -9.031  -9.098  19.373  0.00  0.00    +0.000 HD
ATOM     67  H   UNL     1      -9.562  -8.679  21.007  0.00  0.00    +0.000 HD
ATOM     68  H   UNL     1      -8.164  -9.790  20.745  0.00  0.00    +0.000 HD
ENDBRANCH  64  65
ENDBRANCH   1  64
TORSDOF 8
ENDMDL
MODEL 3
REMARK VINA RESULT:    -9.496      1.183      1.622
REMARK INTER + INTRA:         -14.030
REMARK INTER:                 -13.389
REMARK INTRA:                  -0.641
REMARK UNBOUND:                -0.926
REMARK  Name = 
REMARK  8 active torsions:
REMARK  status: ('A' for Active; 'I' for Inactive)
REMARK    1  A    between atoms: C_1  and  O_2
REMARK    2  A    between atoms: O_2  and  C_3
REMARK    3  A    between atoms: N_17  and  C_18
REMARK    4  A    between atoms: N_21  and  C_22
REMARK    5  A    between atoms: C_22  and  C_23
REMARK    6  A    between atoms: C_23  and  N_24
REMARK    7  A    between atoms: N_24  and  C_25
REMARK    8  A    between atoms: C_28  and  O_29
REMARK                            x       y       z     vdW  Elec       q    Type
REMARK                         _______ _______ _______ _____ _____    ______ ____
ROOT
ATOM      1  C   UNL     1      -8.256  -3.746  20.951  0.00  0.00    +0.000 A 
ATOM      2  C   UNL     1      -8.685  -2.426  20.975  0.00  0.00    +0.000 A 
ATOM      3  C   UNL     1      -9.433  -1.901  19.917  0.00  0.00    +0.000 A 
ATOM      4  C   UNL     1      -9.755  -2.712  18.815  0.00  0.00    +0.000 A 
ATOM      5  C   UNL     1     -10.516  -2.623  17.658  0.00  0.00    +0.000 A 
ATOM      6  C   UNL     1     -11.180  -1.443  17.267  0.00  0.00    +0.000 A 
ATOM      7  C   UNL     1     -12.087  -1.571  16.201  0.00  0.00    +0.000 A 
ATOM      8  C   UNL     1     -12.031  -2.608  15.276  0.00  0.00    +0.000 A 
ATOM      9  C   UNL     1     -11.203  -3.728  15.582  0.00  0.00    +0.000 A 
ATOM     10  C   UNL     1     -10.818  -4.592  14.550  0.00  0.00    +0.000 A 
ATOM     11  C   UNL     1     -10.718  -4.070  13.248  0.00  0.00    +0.000 A 
ATOM     12  C   UNL     1     -11.191  -2.765  13.089  0.00  0.00    +0.000 A 
ATOM     13  C   UNL     1     -10.573  -1.495  12.771  0.00  0.00    +0.000 A 
ATOM     14  C   UNL     1     -11.531  -0.516  12.988  0.00  0.00    +0.000 A 
ATOM     15  N   UNL     1     -12.695  -1.255  13.154  0.00  0.00    +0.000 N 
ATOM     16  C   UNL     1     -12.267  -2.358  13.904  0.00  0.00    +0.000 A 
ATOM     17  C   UNL     1     -10.539  -3.745  16.858  0.00  0.00    +0.000 A 
ATOM     18  N   UNL     1      -9.642  -4.584  17.532  0.00  0.00    +0.000 N 
ATOM     19  C   UNL     1      -9.256  -4.021  18.768  0.00  0.00    +0.000 A 
ATOM     20  C   UNL     1      -8.487  -4.544  19.824  0.00  0.00    +0.000 A 
ATOM     21  C   UNL     1     -12.726  -0.301  16.030  0.00  0.00    +0.000 C 
ATOM     22  O   UNL     1     -13.745   0.054  15.452  0.00  0.00    +0.000 OA
ATOM     23  N   UNL     1     -11.908   0.541  16.721  0.00  0.00    +0.000 N 
ATOM     24  C   UNL     1     -10.980  -0.051  17.524  0.00  0.00    +0.000 C 
ATOM     25  O   UNL     1     -10.144   0.561  18.144  0.00  0.00    +0.000 OA
ATOM     26  H   UNL     1      -8.463  -1.769  21.809  0.00  0.00    +0.000 HD
ATOM     27  H   UNL     1      -9.775  -0.874  19.983  0.00  0.00    +0.000 HD
ATOM     28  H   UNL     1     -10.331  -5.544  14.715  0.00  0.00    +0.000 HD
ATOM     29  H   UNL     1     -10.069  -4.532  12.513  0.00  0.00    +0.000 HD
ATOM     30  H   UNL     1      -9.526  -1.315  12.571  0.00  0.00    +0.000 HD
ATOM     31  H   UNL     1     -11.555   0.563  12.930  0.00  0.00    +0.000 HD
ATOM     32  H   UNL     1      -8.105  -5.559  19.804  0.00  0.00    +0.000 HD
ATOM     33  H   UNL     1     -11.755   1.472  16.364  0.00  0.00    +0.000 HD
ENDROOT
BRANCH  15  34
ATOM     34  C   UNL     1     -13.567  -1.403  11.983  0.00  0.00    +0.000 C 
ATOM     35  H   UNL     1     -12.967  -1.259  11.083  0.00  0.00    +0.000 HD
ATOM     36  H   UNL     1     -14.389  -0.687  12.040  0.00  0.00    +0.000 HD
ATOM     37  H   UNL     1     -13.973  -2.424  11.990  0.00  0.00    +0.000 HD
ENDBRANCH  15  34
BRANCH  18  38
ATOM     38  C   UNL     1      -9.169  -5.893  17.094  0.00  0.00    +0.000 C 
ATOM     39  H   UNL     1      -8.300  -6.134  17.714  0.00  0.00    +0.000 HD
ATOM     40  H   UNL     1      -8.777  -5.815  16.073  0.00  0.00    +0.000 HD
BRANCH  38  41
ATOM     41  C   UNL     1     -10.210  -7.032  17.175  0.00  0.00    +0.000 C 
ATOM     42  H   UNL     1     -11.160  -6.592  17.476  0.00  0.00    +0.000 HD
ATOM     43  H   UNL     1      -9.891  -7.715  17.973  0.00  0.00    +0.000 HD
BRANCH  41  44
ATOM     44  N   UNL     1     -10.439  -7.813  15.953  0.00  0.00    +0.000 NA
ATOM     45  H   UNL     1      -9.832  -7.488  15.201  0.00  0.00    +0.000 HD
BRANCH  44  46
ATOM     46  C   UNL     1     -10.261  -9.265  16.157  0.00  0.00    +0.000 C 
ATOM     47  C   UNL     1      -9.591  -9.951  14.947  0.00  0.00    +0.000 C 
ATOM     48  C   UNL     1      -9.298 -11.424  15.200  0.00  0.00    +0.000 C 
ATOM     49  C   UNL     1      -8.455 -11.617  16.453  0.00  0.00    +0.000 C 
ATOM     50  C   UNL     1      -9.133 -10.984  17.665  0.00  0.00    +0.000 C 
ATOM     51  C   UNL     1      -9.429  -9.500  17.433  0.00  0.00    +0.000 C 
ATOM     52  H   UNL     1     -11.247  -9.722  16.317  0.00  0.00    +0.000 HD
ATOM     53  H   UNL     1      -8.657  -9.432  14.698  0.00  0.00    +0.000 HD
ATOM     54  H   UNL     1     -10.236  -9.897  14.063  0.00  0.00    +0.000 HD
ATOM     55  H   UNL     1      -8.782 -11.857  14.333  0.00  0.00    +0.000 HD
ATOM     56  H   UNL     1     -10.239 -11.981  15.292  0.00  0.00    +0.000 HD
ATOM     57  H   UNL     1      -7.467 -11.166  16.305  0.00  0.00    +0.000 HD
ATOM     58  H   UNL     1      -8.499 -11.111  18.550  0.00  0.00    +0.000 HD
ATOM     59  H   UNL     1     -10.066 -11.518  17.890  0.00  0.00    +0.000 HD
ATOM     60  H   UNL     1      -8.476  -8.957  17.366  0.00  0.00    +0.000 HD
ATOM     61  H   UNL     1      -9.958  -9.104  18.309  0.00  0.00    +0.000 HD
BRANCH  49  62
ATOM     62  O   UNL     1      -8.254 -13.007  16.681  0.00  0.00    +0.000 OA
ATOM     63  H   UNL     1      -7.325 -13.145  16.929  0.00  0.00    +0.000 HD
ENDBRANCH  49  62
ENDBRANCH  44  46
ENDBRANCH  41  44
ENDBRANCH  38  41
ENDBRANCH  18  38
BRANCH   1  64
ATOM     64  O   UNL     1      -7.575  -4.354  21.976  0.00  0.00    +0.000 OA
BRANCH  64  65
ATOM     65  C   UNL     1      -7.645  -3.666  23.223  0.00  0.00    +0.000 C 
ATOM     66  H   UNL     1      -7.624  -4.413  24.022  0.00  0.00    +0.000 HD
ATOM     67  H   UNL     1      -8.582  -3.104  23.318  0.00  0.00    +0.000 HD
ATOM     68  H   UNL     1      -6.780  -3.010  23.363  0.00  0.00    +0.000 HD
ENDBRANCH  64  65
ENDBRANCH   1  64
TORSDOF 8
ENDMDL
MODEL 4
REMARK VINA RESULT:    -9.200      2.663      7.824
REMARK INTER + INTRA:         -13.621
REMARK INTER:                 -12.667
REMARK INTRA:                  -0.954
REMARK UNBOUND:                -0.926
REMARK  Name = 
REMARK  8 active torsions:
REMARK  status: ('A' for Active; 'I' for Inactive)
REMARK    1  A    between atoms: C_1  and  O_2
REMARK    2  A    between atoms: O_2  and  C_3
REMARK    3  A    between atoms: N_17  and  C_18
REMARK    4  A    between atoms: N_21  and  C_22
REMARK    5  A    between atoms: C_22  and  C_23
REMARK    6  A    between atoms: C_23  and  N_24
REMARK    7  A    between atoms: N_24  and  C_25
REMARK    8  A    between atoms: C_28  and  O_29
REMARK                            x       y       z     vdW  Elec       q    Type
REMARK                         _______ _______ _______ _____ _____    ______ ____
ROOT
ATOM      1  C   UNL     1     -12.291   0.784  16.130  0.00  0.00    +0.000 A 
ATOM      2  C   UNL     1     -12.684  -0.236  15.274  0.00  0.00    +0.000 A 
ATOM      3  C   UNL     1     -12.335  -1.564  15.541  0.00  0.00    +0.000 A 
ATOM      4  C   UNL     1     -11.579  -1.874  16.684  0.00  0.00    +0.000 A 
ATOM      5  C   UNL     1     -11.121  -3.008  17.340  0.00  0.00    +0.000 A 
ATOM      6  C   UNL     1     -11.310  -4.312  16.838  0.00  0.00    +0.000 A 
ATOM      7  C   UNL     1     -10.994  -5.362  17.717  0.00  0.00    +0.000 A 
ATOM      8  C   UNL     1     -10.132  -5.214  18.799  0.00  0.00    +0.000 A 
ATOM      9  C   UNL     1      -9.782  -3.889  19.193  0.00  0.00    +0.000 A 
ATOM     10  C   UNL     1      -8.653  -3.695  19.998  0.00  0.00    +0.000 A 
ATOM     11  C   UNL     1      -7.603  -4.625  19.907  0.00  0.00    +0.000 A 
ATOM     12  C   UNL     1      -7.874  -5.760  19.139  0.00  0.00    +0.000 A 
ATOM     13  C   UNL     1      -7.363  -6.285  17.890  0.00  0.00    +0.000 A 
ATOM     14  C   UNL     1      -8.196  -7.332  17.523  0.00  0.00    +0.000 A 
ATOM     15  N   UNL     1      -8.960  -7.534  18.665  0.00  0.00    +0.000 N 
ATOM     16  C   UNL     1      -9.203  -6.230  19.119  0.00  0.00    +0.000 A 
ATOM     17  C   UNL     1     -10.399  -2.794  18.493  0.00  0.00    +0.000 A 
ATOM     18  N   UNL     1     -10.324  -1.395  18.517  0.00  0.00    +0.000 N 
ATOM     19  C   UNL     1     -11.128  -0.830  17.502  0.00  0.00    +0.000 A 
ATOM     20  C   UNL     1     -11.462   0.509  17.223  0.00  0.00    +0.000 A 
ATOM     21  C   UNL     1     -11.352  -6.586  17.065  0.00  0.00    +0.000 C 
ATOM     22  O   UNL     1     -11.533  -7.728  17.467  0.00  0.00    +0.000 OA
ATOM     23  N   UNL     1     -11.487  -6.205  15.765  0.00  0.00    +0.000 N 
ATOM     24  C   UNL     1     -11.519  -4.861  15.535  0.00  0.00    +0.000 C 
ATOM     25  O   UNL     1     -11.566  -4.372  14.432  0.00  0.00    +0.000 OA
ATOM     26  H   UNL     1     -13.273  -0.040  14.385  0.00  0.00    +0.000 HD
ATOM     27  H   UNL     1     -12.683  -2.337  14.865  0.00  0.00    +0.000 HD
ATOM     28  H   UNL     1      -8.408  -2.753  20.471  0.00  0.00    +0.000 HD
ATOM     29  H   UNL     1      -6.588  -4.344  20.165  0.00  0.00    +0.000 HD
ATOM     30  H   UNL     1      -6.593  -5.848  17.270  0.00  0.00    +0.000 HD
ATOM     31  H   UNL     1      -8.259  -8.004  16.679  0.00  0.00    +0.000 HD
ATOM     32  H   UNL     1     -11.128   1.324  17.855  0.00  0.00    +0.000 HD
ATOM     33  H   UNL     1     -11.194  -6.839  15.039  0.00  0.00    +0.000 HD
ENDROOT
BRANCH  15  34
ATOM     34  C   UNL     1      -8.535  -8.606  19.573  0.00  0.00    +0.000 C 
ATOM     35  H   UNL     1      -8.487  -8.204  20.586  0.00  0.00    +0.000 HD
ATOM     36  H   UNL     1      -7.571  -9.004  19.250  0.00  0.00    +0.000 HD
ATOM     37  H   UNL     1      -9.291  -9.402  19.532  0.00  0.00    +0.000 HD
ENDBRANCH  15  34
BRANCH  18  38
ATOM     38  C   UNL     1      -9.577  -0.573  19.463  0.00  0.00    +0.000 C 
ATOM     39  H   UNL     1      -9.271   0.327  18.921  0.00  0.00    +0.000 HD
ATOM     40  H   UNL     1      -8.640  -1.080  19.724  0.00  0.00    +0.000 HD
BRANCH  38  41
ATOM     41  C   UNL     1     -10.343  -0.184  20.748  0.00  0.00    +0.000 C 
ATOM     42  H   UNL     1     -11.107   0.541  20.471  0.00  0.00    +0.000 HD
ATOM     43  H   UNL     1      -9.632   0.319  21.416  0.00  0.00    +0.000 HD
BRANCH  41  44
ATOM     44  N   UNL     1     -10.995  -1.270  21.489  0.00  0.00    +0.000 NA
ATOM     45  H   UNL     1     -10.714  -2.178  21.117  0.00  0.00    +0.000 HD
BRANCH  44  46
ATOM     46  C   UNL     1     -10.732  -1.215  22.941  0.00  0.00    +0.000 C 
ATOM     47  C   UNL     1     -11.100  -2.532  23.656  0.00  0.00    +0.000 C 
ATOM     48  C   UNL     1     -10.720  -2.523  25.131  0.00  0.00    +0.000 C 
ATOM     49  C   UNL     1      -9.242  -2.209  25.323  0.00  0.00    +0.000 C 
ATOM     50  C   UNL     1      -8.880  -0.883  24.661  0.00  0.00    +0.000 C 
ATOM     51  C   UNL     1      -9.246  -0.877  23.175  0.00  0.00    +0.000 C 
ATOM     52  H   UNL     1     -11.328  -0.402  23.376  0.00  0.00    +0.000 HD
ATOM     53  H   UNL     1     -10.602  -3.375  23.159  0.00  0.00    +0.000 HD
ATOM     54  H   UNL     1     -12.178  -2.717  23.602  0.00  0.00    +0.000 HD
ATOM     55  H   UNL     1     -10.957  -3.493  25.586  0.00  0.00    +0.000 HD
ATOM     56  H   UNL     1     -11.332  -1.787  25.668  0.00  0.00    +0.000 HD
ATOM     57  H   UNL     1      -8.636  -3.014  24.894  0.00  0.00    +0.000 HD
ATOM     58  H   UNL     1      -7.808  -0.688  24.788  0.00  0.00    +0.000 HD
ATOM     59  H   UNL     1      -9.392  -0.058  25.174  0.00  0.00    +0.000 HD
ATOM     60  H   UNL     1      -8.609  -1.602  22.651  0.00  0.00    +0.000 HD
ATOM     61  H   UNL     1      -9.012   0.110  22.757  0.00  0.00    +0.000 HD
BRANCH  49  62
ATOM     62  O   UNL     1      -8.946  -2.153  26.714  0.00  0.00    +0.000 OA
ATOM     63  H   UNL     1      -8.199  -1.545  26.843  0.00  0.00    +0.000 HD
ENDBRANCH  49  62
ENDBRANCH  44  46
ENDBRANCH  41  44
ENDBRANCH  38  41
ENDBRANCH  18  38
BRANCH   1  64
ATOM     64  O   UNL     1     -12.646   2.100  15.974  0.00  0.00    +0.000 OA
BRANCH  64  65
ATOM     65  C   UNL     1     -13.198   2.707  17.141  0.00  0.00    +0.000 C 
ATOM     66  H   UNL     1     -14.279   2.790  16.999  0.00  0.00    +0.000 HD
ATOM     67  H   UNL     1     -12.803   3.719  17.291  0.00  0.00    +0.000 HD
ATOM     68  H   UNL     1     -13.029   2.087  18.027  0.00  0.00    +0.000 HD
ENDBRANCH  64  65
ENDBRANCH   1  64
TORSDOF 8
ENDMDL
MODEL 5
REMARK VINA RESULT:    -8.738      2.356      5.941
REMARK INTER + INTRA:         -12.984
REMARK INTER:                 -12.887
REMARK INTRA:                  -0.096
REMARK UNBOUND:                -0.926
REMARK  Name = 
REMARK  8 active torsions:
REMARK  status: ('A' for Active; 'I' for Inactive)
REMARK    1  A    between atoms: C_1  and  O_2
REMARK    2  A    between atoms: O_2  and  C_3
REMARK    3  A    between atoms: N_17  and  C_18
REMARK    4  A    between atoms: N_21  and  C_22
REMARK    5  A    between atoms: C_22  and  C_23
REMARK    6  A    between atoms: C_23  and  N_24
REMARK    7  A    between atoms: N_24  and  C_25
REMARK    8  A    between atoms: C_28  and  O_29
REMARK                            x       y       z     vdW  Elec       q    Type
REMARK                         _______ _______ _______ _____ _____    ______ ____
ROOT
ATOM      1  C   UNL     1     -10.157  -6.910  16.068  0.00  0.00    +0.000 A 
ATOM      2  C   UNL     1     -10.910  -5.769  15.826  0.00  0.00    +0.000 A 
ATOM      3  C   UNL     1     -10.829  -4.668  16.684  0.00  0.00    +0.000 A 
ATOM      4  C   UNL     1      -9.980  -4.711  17.803  0.00  0.00    +0.000 A 
ATOM      5  C   UNL     1      -9.550  -3.851  18.804  0.00  0.00    +0.000 A 
ATOM      6  C   UNL     1     -10.041  -2.537  18.948  0.00  0.00    +0.000 A 
ATOM      7  C   UNL     1      -9.352  -1.720  19.859  0.00  0.00    +0.000 A 
ATOM      8  C   UNL     1      -8.569  -2.224  20.892  0.00  0.00    +0.000 A 
ATOM      9  C   UNL     1      -8.228  -3.608  20.852  0.00  0.00    +0.000 A 
ATOM     10  C   UNL     1      -7.785  -4.234  22.024  0.00  0.00    +0.000 A 
ATOM     11  C   UNL     1      -8.233  -3.730  23.257  0.00  0.00    +0.000 A 
ATOM     12  C   UNL     1      -8.944  -2.529  23.190  0.00  0.00    +0.000 A 
ATOM     13  C   UNL     1     -10.314  -2.147  23.459  0.00  0.00    +0.000 A 
ATOM     14  C   UNL     1     -10.471  -0.854  22.981  0.00  0.00    +0.000 A 
ATOM     15  N   UNL     1      -9.167  -0.463  22.713  0.00  0.00    +0.000 N 
ATOM     16  C   UNL     1      -8.593  -1.621  22.171  0.00  0.00    +0.000 A 
ATOM     17  C   UNL     1      -8.654  -4.373  19.711  0.00  0.00    +0.000 A 
ATOM     18  N   UNL     1      -8.580  -5.708  19.290  0.00  0.00    +0.000 N 
ATOM     19  C   UNL     1      -9.279  -5.893  18.077  0.00  0.00    +0.000 A 
ATOM     20  C   UNL     1      -9.375  -7.009  17.225  0.00  0.00    +0.000 A 
ATOM     21  C   UNL     1      -9.932  -0.412  19.781  0.00  0.00    +0.000 C 
ATOM     22  O   UNL     1      -9.554   0.696  20.143  0.00  0.00    +0.000 OA
ATOM     23  N   UNL     1     -11.111  -0.645  19.142  0.00  0.00    +0.000 N 
ATOM     24  C   UNL     1     -11.250  -1.874  18.571  0.00  0.00    +0.000 C 
ATOM     25  O   UNL     1     -12.262  -2.250  18.030  0.00  0.00    +0.000 OA
ATOM     26  H   UNL     1     -11.573  -5.693  14.971  0.00  0.00    +0.000 HD
ATOM     27  H   UNL     1     -11.410  -3.784  16.448  0.00  0.00    +0.000 HD
ATOM     28  H   UNL     1      -7.357  -5.227  22.048  0.00  0.00    +0.000 HD
ATOM     29  H   UNL     1      -8.273  -4.365  24.135  0.00  0.00    +0.000 HD
ATOM     30  H   UNL     1     -11.111  -2.790  23.805  0.00  0.00    +0.000 HD
ATOM     31  H   UNL     1     -11.293  -0.154  22.913  0.00  0.00    +0.000 HD
ATOM     32  H   UNL     1      -8.829  -7.926  17.420  0.00  0.00    +0.000 HD
ATOM     33  H   UNL     1     -11.924  -0.113  19.412  0.00  0.00    +0.000 HD
ENDROOT
BRANCH  15  34
ATOM     34  C   UNL     1      -8.483   0.336  23.737  0.00  0.00    +0.000 C 
ATOM     35  H   UNL     1      -7.442   0.014  23.791  0.00  0.00    +0.000 HD
ATOM     36  H   UNL     1      -8.992   0.222  24.696  0.00  0.00    +0.000 HD
ATOM     37  H   UNL     1      -8.523   1.389  23.426  0.00  0.00    +0.000 HD
ENDBRANCH  15  34
BRANCH  18  38
ATOM     38  C   UNL     1      -7.856  -6.793  19.943  0.00  0.00    +0.000 C 
ATOM     39  H   UNL     1      -7.423  -6.374  20.856  0.00  0.00    +0.000 HD
ATOM     40  H   UNL     1      -6.997  -7.081  19.326  0.00  0.00    +0.000 HD
BRANCH  38  41
ATOM     41  C   UNL     1      -8.704  -8.039  20.284  0.00  0.00    +0.000 C 
ATOM     42  H   UNL     1      -9.499  -8.113  19.543  0.00  0.00    +0.000 HD
ATOM     43  H   UNL     1      -9.174  -7.862  21.261  0.00  0.00    +0.000 HD
BRANCH  41  44
ATOM     44  N   UNL     1      -8.004  -9.329  20.327  0.00  0.00    +0.000 NA
ATOM     45  H   UNL     1      -7.943  -9.673  21.286  0.00  0.00    +0.000 HD
BRANCH  44  46
ATOM     46  C   UNL     1      -8.628 -10.351  19.462  0.00  0.00    +0.000 C 
ATOM     47  C   UNL     1      -8.900  -9.829  18.036  0.00  0.00    +0.000 C 
ATOM     48  C   UNL     1      -9.433 -10.914  17.108  0.00  0.00    +0.000 C 
ATOM     49  C   UNL     1      -8.500 -12.116  17.064  0.00  0.00    +0.000 C 
ATOM     50  C   UNL     1      -8.263 -12.669  18.466  0.00  0.00    +0.000 C 
ATOM     51  C   UNL     1      -7.719 -11.596  19.411  0.00  0.00    +0.000 C 
ATOM     52  H   UNL     1      -9.582 -10.658  19.912  0.00  0.00    +0.000 HD
ATOM     53  H   UNL     1      -7.978  -9.409  17.613  0.00  0.00    +0.000 HD
ATOM     54  H   UNL     1      -9.643  -9.024  18.052  0.00  0.00    +0.000 HD
ATOM     55  H   UNL     1      -9.568 -10.508  16.097  0.00  0.00    +0.000 HD
ATOM     56  H   UNL     1     -10.432 -11.227  17.437  0.00  0.00    +0.000 HD
ATOM     57  H   UNL     1      -7.544 -11.823  16.616  0.00  0.00    +0.000 HD
ATOM     58  H   UNL     1      -7.569 -13.517  18.415  0.00  0.00    +0.000 HD
ATOM     59  H   UNL     1      -9.199 -13.079  18.867  0.00  0.00    +0.000 HD
ATOM     60  H   UNL     1      -6.711 -11.311  19.080  0.00  0.00    +0.000 HD
ATOM     61  H   UNL     1      -7.612 -12.028  20.414  0.00  0.00    +0.000 HD
BRANCH  49  62
ATOM     62  O   UNL     1      -9.063 -13.124  16.233  0.00  0.00    +0.000 OA
ATOM     63  H   UNL     1      -9.712 -12.706  15.642  0.00  0.00    +0.000 HD
ENDBRANCH  49  62
ENDBRANCH  44  46
ENDBRANCH  41  44
ENDBRANCH  38  41
ENDBRANCH  18  38
BRANCH   1  64
ATOM     64  O   UNL     1     -10.131  -8.006  15.242  0.00  0.00    +0.000 OA
BRANCH  64  65
ATOM     65  C   UNL     1      -8.836  -8.347  14.752  0.00  0.00    +0.000 C 
ATOM     66  H   UNL     1      -8.305  -7.418  14.525  0.00  0.00    +0.000 HD
ATOM     67  H   UNL     1      -8.900  -8.929  13.825  0.00  0.00    +0.000 HD
ATOM     68  H   UNL     1      -8.255  -8.881  15.510  0.00  0.00    +0.000 HD
ENDBRANCH  64  65
ENDBRANCH   1  64
TORSDOF 8
ENDMDL
MODEL 6
REMARK VINA RESULT:    -8.408      1.944      2.793
REMARK INTER + INTRA:         -12.528
REMARK INTER:                 -11.581
REMARK INTRA:                  -0.948
REMARK UNBOUND:                -0.926
REMARK  Name = 
REMARK  8 active torsions:
REMARK  status: ('A' for Active; 'I' for Inactive)
REMARK    1  A    between atoms: C_1  and  O_2
REMARK    2  A    between atoms: O_2  and  C_3
REMARK    3  A    between atoms: N_17  and  C_18
REMARK    4  A    between atoms: N_21  and  C_22
REMARK    5  A    between atoms: C_22  and  C_23
REMARK    6  A    between atoms: C_23  and  N_24
REMARK    7  A    between atoms: N_24  and  C_25
REMARK    8  A    between atoms: C_28  and  O_29
REMARK                            x       y       z     vdW  Elec       q    Type
REMARK                         _______ _______ _______ _____ _____    ______ ____
ROOT
ATOM      1  C   UNL     1     -11.201  -0.902  21.318  0.00  0.00    +0.000 A 
ATOM      2  C   UNL     1     -11.428   0.258  20.590  0.00  0.00    +0.000 A 
ATOM      3  C   UNL     1     -11.554   0.212  19.198  0.00  0.00    +0.000 A 
ATOM      4  C   UNL     1     -11.450  -1.017  18.525  0.00  0.00    +0.000 A 
ATOM      5  C   UNL     1     -11.598  -1.498  17.231  0.00  0.00    +0.000 A 
ATOM      6  C   UNL     1     -11.865  -0.662  16.129  0.00  0.00    +0.000 A 
ATOM      7  C   UNL     1     -12.210  -1.313  14.932  0.00  0.00    +0.000 A 
ATOM      8  C   UNL     1     -11.878  -2.636  14.663  0.00  0.00    +0.000 A 
ATOM      9  C   UNL     1     -11.420  -3.440  15.748  0.00  0.00    +0.000 A 
ATOM     10  C   UNL     1     -10.726  -4.625  15.472  0.00  0.00    +0.000 A 
ATOM     11  C   UNL     1      -9.993  -4.702  14.276  0.00  0.00    +0.000 A 
ATOM     12  C   UNL     1     -10.178  -3.638  13.390  0.00  0.00    +0.000 A 
ATOM     13  C   UNL     1      -9.330  -2.576  12.889  0.00  0.00    +0.000 A 
ATOM     14  C   UNL     1     -10.155  -1.687  12.215  0.00  0.00    +0.000 A 
ATOM     15  N   UNL     1     -11.353  -2.383  12.126  0.00  0.00    +0.000 N 
ATOM     16  C   UNL     1     -11.444  -3.018  13.372  0.00  0.00    +0.000 A 
ATOM     17  C   UNL     1     -11.401  -2.851  17.060  0.00  0.00    +0.000 A 
ATOM     18  N   UNL     1     -11.011  -3.240  18.349  0.00  0.00    +0.000 N 
ATOM     19  C   UNL     1     -11.150  -2.170  19.261  0.00  0.00    +0.000 A 
ATOM     20  C   UNL     1     -11.003  -2.122  20.660  0.00  0.00    +0.000 A 
ATOM     21  C   UNL     1     -12.542  -0.299  13.976  0.00  0.00    +0.000 C 
ATOM     22  O   UNL     1     -13.144  -0.317  12.910  0.00  0.00    +0.000 OA
ATOM     23  N   UNL     1     -12.020   0.826  14.538  0.00  0.00    +0.000 N 
ATOM     24  C   UNL     1     -11.630   0.718  15.840  0.00  0.00    +0.000 C 
ATOM     25  O   UNL     1     -11.088   1.608  16.451  0.00  0.00    +0.000 OA
ATOM     26  H   UNL     1     -11.521   1.225  21.072  0.00  0.00    +0.000 HD
ATOM     27  H   UNL     1     -11.759   1.134  18.666  0.00  0.00    +0.000 HD
ATOM     28  H   UNL     1     -10.486  -5.367  16.221  0.00  0.00    +0.000 HD
ATOM     29  H   UNL     1      -9.147  -5.374  14.185  0.00  0.00    +0.000 HD
ATOM     30  H   UNL     1      -8.290  -2.407  13.132  0.00  0.00    +0.000 HD
ATOM     31  H   UNL     1     -10.015  -0.743  11.708  0.00  0.00    +0.000 HD
ATOM     32  H   UNL     1     -10.782  -3.010  21.242  0.00  0.00    +0.000 HD
ATOM     33  H   UNL     1     -11.610   1.524  13.939  0.00  0.00    +0.000 HD
ENDROOT
BRANCH  15  34
ATOM     34  C   UNL     1     -11.622  -3.095  10.871  0.00  0.00    +0.000 C 
ATOM     35  H   UNL     1     -11.876  -2.362  10.104  0.00  0.00    +0.000 HD
ATOM     36  H   UNL     1     -12.426  -3.818  11.021  0.00  0.00    +0.000 HD
ATOM     37  H   UNL     1     -10.705  -3.625  10.579  0.00  0.00    +0.000 HD
ENDBRANCH  15  34
BRANCH  18  38
ATOM     38  C   UNL     1     -10.559  -4.563  18.766  0.00  0.00    +0.000 C 
ATOM     39  H   UNL     1     -10.977  -5.275  18.048  0.00  0.00    +0.000 HD
ATOM     40  H   UNL     1     -11.023  -4.820  19.725  0.00  0.00    +0.000 HD
BRANCH  38  41
ATOM     41  C   UNL     1      -9.027  -4.739  18.855  0.00  0.00    +0.000 C 
ATOM     42  H   UNL     1      -8.783  -5.010  19.881  0.00  0.00    +0.000 HD
ATOM     43  H   UNL     1      -8.569  -3.762  18.650  0.00  0.00    +0.000 HD
BRANCH  41  44
ATOM     44  N   UNL     1      -8.419  -5.738  17.967  0.00  0.00    +0.000 NA
ATOM     45  H   UNL     1      -7.414  -5.797  18.128  0.00  0.00    +0.000 HD
BRANCH  44  46
ATOM     46  C   UNL     1      -9.033  -7.075  18.100  0.00  0.00    +0.000 C 
ATOM     47  C   UNL     1      -8.916  -7.907  16.806  0.00  0.00    +0.000 C 
ATOM     48  C   UNL     1      -9.441  -9.328  16.975  0.00  0.00    +0.000 C 
ATOM     49  C   UNL     1      -8.750 -10.042  18.129  0.00  0.00    +0.000 C 
ATOM     50  C   UNL     1      -8.901  -9.249  19.425  0.00  0.00    +0.000 C 
ATOM     51  C   UNL     1      -8.371  -7.821  19.276  0.00  0.00    +0.000 C 
ATOM     52  H   UNL     1     -10.097  -6.952  18.344  0.00  0.00    +0.000 HD
ATOM     53  H   UNL     1      -7.868  -7.943  16.481  0.00  0.00    +0.000 HD
ATOM     54  H   UNL     1      -9.490  -7.447  15.994  0.00  0.00    +0.000 HD
ATOM     55  H   UNL     1      -9.296  -9.894  16.046  0.00  0.00    +0.000 HD
ATOM     56  H   UNL     1     -10.525  -9.307  17.142  0.00  0.00    +0.000 HD
ATOM     57  H   UNL     1      -7.687 -10.172  17.898  0.00  0.00    +0.000 HD
ATOM     58  H   UNL     1      -8.376  -9.767  20.237  0.00  0.00    +0.000 HD
ATOM     59  H   UNL     1      -9.957  -9.225  19.725  0.00  0.00    +0.000 HD
ATOM     60  H   UNL     1      -7.284  -7.862  19.132  0.00  0.00    +0.000 HD
ATOM     61  H   UNL     1      -8.547  -7.279  20.215  0.00  0.00    +0.000 HD
BRANCH  49  62
ATOM     62  O   UNL     1      -9.309 -11.340  18.287  0.00  0.00    +0.000 OA
ATOM     63  H   UNL     1      -9.368 -11.535  19.238  0.00  0.00    +0.000 HD
ENDBRANCH  49  62
ENDBRANCH  44  46
ENDBRANCH  41  44
ENDBRANCH  38  41
ENDBRANCH  18  38
BRANCH   1  64
ATOM     64  O   UNL     1     -11.130  -0.951  22.687  0.00  0.00    +0.000 OA
BRANCH  64  65
ATOM     65  C   UNL     1     -10.146  -1.849  23.197  0.00  0.00    +0.000 C 
ATOM     66  H   UNL     1      -9.161  -1.406  23.021  0.00  0.00    +0.000 HD
ATOM     67  H   UNL     1     -10.175  -2.813  22.676  0.00  0.00    +0.000 HD
ATOM     68  H   UNL     1     -10.256  -1.986  24.277  0.00  0.00    +0.000 HD
ENDBRANCH  64  65
ENDBRANCH   1  64
TORSDOF 8
ENDMDL
MODEL 7
REMARK VINA RESULT:    -8.408      1.980      6.930
REMARK INTER + INTRA:         -12.528
REMARK INTER:                 -11.252
REMARK INTRA:                  -1.276
REMARK UNBOUND:                -0.926
REMARK  Name = 
REMARK  8 active torsions:
REMARK  status: ('A' for Active; 'I' for Inactive)
REMARK    1  A    between atoms: C_1  and  O_2
REMARK    2  A    between atoms: O_2  and  C_3
REMARK    3  A    between atoms: N_17  and  C_18
REMARK    4  A    between atoms: N_21  and  C_22
REMARK    5  A    between atoms: C_22  and  C_23
REMARK    6  A    between atoms: C_23  and  N_24
REMARK    7  A    between atoms: N_24  and  C_25
REMARK    8  A    between atoms: C_28  and  O_29
REMARK                            x       y       z     vdW  Elec       q    Type
REMARK                         _______ _______ _______ _____ _____    ______ ____
ROOT
ATOM      1  C   UNL     1      -9.567  -8.378  16.941  0.00  0.00    +0.000 A 
ATOM      2  C   UNL     1      -8.917  -8.030  18.117  0.00  0.00    +0.000 A 
ATOM      3  C   UNL     1      -8.995  -6.725  18.613  0.00  0.00    +0.000 A 
ATOM      4  C   UNL     1      -9.735  -5.753  17.919  0.00  0.00    +0.000 A 
ATOM      5  C   UNL     1     -10.129  -4.434  18.099  0.00  0.00    +0.000 A 
ATOM      6  C   UNL     1      -9.716  -3.656  19.200  0.00  0.00    +0.000 A 
ATOM      7  C   UNL     1     -10.373  -2.425  19.363  0.00  0.00    +0.000 A 
ATOM      8  C   UNL     1     -11.025  -1.767  18.324  0.00  0.00    +0.000 A 
ATOM      9  C   UNL     1     -11.274  -2.500  17.127  0.00  0.00    +0.000 A 
ATOM     10  C   UNL     1     -11.567  -1.800  15.950  0.00  0.00    +0.000 A 
ATOM     11  C   UNL     1     -11.044  -0.504  15.799  0.00  0.00    +0.000 A 
ATOM     12  C   UNL     1     -10.425   0.027  16.933  0.00  0.00    +0.000 A 
ATOM     13  C   UNL     1      -9.064   0.396  17.266  0.00  0.00    +0.000 A 
ATOM     14  C   UNL     1      -9.038   0.646  18.630  0.00  0.00    +0.000 A 
ATOM     15  N   UNL     1     -10.385   0.673  18.966  0.00  0.00    +0.000 N 
ATOM     16  C   UNL     1     -10.926  -0.362  18.192  0.00  0.00    +0.000 A 
ATOM     17  C   UNL     1     -10.902  -3.889  17.099  0.00  0.00    +0.000 A 
ATOM     18  N   UNL     1     -10.925  -4.933  16.165  0.00  0.00    +0.000 N 
ATOM     19  C   UNL     1     -10.327  -6.097  16.696  0.00  0.00    +0.000 A 
ATOM     20  C   UNL     1     -10.233  -7.406  16.186  0.00  0.00    +0.000 A 
ATOM     21  C   UNL     1      -9.893  -1.843  20.580  0.00  0.00    +0.000 C 
ATOM     22  O   UNL     1     -10.309  -0.946  21.304  0.00  0.00    +0.000 OA
ATOM     23  N   UNL     1      -8.762  -2.560  20.829  0.00  0.00    +0.000 N 
ATOM     24  C   UNL     1      -8.594  -3.689  20.084  0.00  0.00    +0.000 C 
ATOM     25  O   UNL     1      -7.611  -4.389  20.143  0.00  0.00    +0.000 OA
ATOM     26  H   UNL     1      -8.341  -8.751  18.686  0.00  0.00    +0.000 HD
ATOM     27  H   UNL     1      -8.497  -6.496  19.549  0.00  0.00    +0.000 HD
ATOM     28  H   UNL     1     -11.923  -2.272  15.044  0.00  0.00    +0.000 HD
ATOM     29  H   UNL     1     -10.882  -0.081  14.815  0.00  0.00    +0.000 HD
ATOM     30  H   UNL     1      -8.198   0.326  16.623  0.00  0.00    +0.000 HD
ATOM     31  H   UNL     1      -8.275   0.913  19.348  0.00  0.00    +0.000 HD
ATOM     32  H   UNL     1     -10.697  -7.687  15.247  0.00  0.00    +0.000 HD
ATOM     33  H   UNL     1      -7.966  -2.091  21.231  0.00  0.00    +0.000 HD
ENDROOT
BRANCH  15  34
ATOM     34  C   UNL     1     -11.025   1.991  19.056  0.00  0.00    +0.000 C 
ATOM     35  H   UNL     1     -12.003   1.871  19.526  0.00  0.00    +0.000 HD
ATOM     36  H   UNL     1     -11.107   2.432  18.060  0.00  0.00    +0.000 HD
ATOM     37  H   UNL     1     -10.394   2.631  19.687  0.00  0.00    +0.000 HD
ENDBRANCH  15  34
BRANCH  18  38
ATOM     38  C   UNL     1     -11.512  -4.902  14.829  0.00  0.00    +0.000 C 
ATOM     39  H   UNL     1     -12.380  -4.238  14.886  0.00  0.00    +0.000 HD
ATOM     40  H   UNL     1     -11.924  -5.889  14.590  0.00  0.00    +0.000 HD
BRANCH  38  41
ATOM     41  C   UNL     1     -10.562  -4.437  13.702  0.00  0.00    +0.000 C 
ATOM     42  H   UNL     1      -9.649  -5.027  13.774  0.00  0.00    +0.000 HD
ATOM     43  H   UNL     1     -10.301  -3.390  13.902  0.00  0.00    +0.000 HD
BRANCH  41  44
ATOM     44  N   UNL     1     -11.062  -4.543  12.326  0.00  0.00    +0.000 NA
ATOM     45  H   UNL     1     -11.831  -5.211  12.273  0.00  0.00    +0.000 HD
BRANCH  44  46
ATOM     46  C   UNL     1     -11.484  -3.242  11.766  0.00  0.00    +0.000 C 
ATOM     47  C   UNL     1     -12.984  -2.961  11.996  0.00  0.00    +0.000 C 
ATOM     48  C   UNL     1     -13.397  -1.572  11.526  0.00  0.00    +0.000 C 
ATOM     49  C   UNL     1     -12.548  -0.489  12.178  0.00  0.00    +0.000 C 
ATOM     50  C   UNL     1     -11.064  -0.732  11.915  0.00  0.00    +0.000 C 
ATOM     51  C   UNL     1     -10.629  -2.121  12.388  0.00  0.00    +0.000 C 
ATOM     52  H   UNL     1     -11.289  -3.245  10.685  0.00  0.00    +0.000 HD
ATOM     53  H   UNL     1     -13.222  -3.070  13.062  0.00  0.00    +0.000 HD
ATOM     54  H   UNL     1     -13.603  -3.683  11.452  0.00  0.00    +0.000 HD
ATOM     55  H   UNL     1     -14.457  -1.401  11.751  0.00  0.00    +0.000 HD
ATOM     56  H   UNL     1     -13.312  -1.508  10.434  0.00  0.00    +0.000 HD
ATOM     57  H   UNL     1     -12.734  -0.476  13.258  0.00  0.00    +0.000 HD
ATOM     58  H   UNL     1     -10.470   0.043  12.414  0.00  0.00    +0.000 HD
ATOM     59  H   UNL     1     -10.854  -0.621  10.843  0.00  0.00    +0.000 HD
ATOM     60  H   UNL     1     -10.699  -2.158  13.484  0.00  0.00    +0.000 HD
ATOM     61  H   UNL     1      -9.571  -2.265  12.133  0.00  0.00    +0.000 HD
BRANCH  49  62
ATOM     62  O   UNL     1     -12.929   0.783  11.669  0.00  0.00    +0.000 OA
ATOM     63  H   UNL     1     -13.887   0.889  11.795  0.00  0.00    +0.000 HD
ENDBRANCH  49  62
ENDBRANCH  44  46
ENDBRANCH  41  44
ENDBRANCH  38  41
ENDBRANCH  18  38
BRANCH   1  64
ATOM     64  O   UNL     1      -9.594  -9.649  16.422  0.00  0.00    +0.000 OA
BRANCH  64  65
ATOM     65  C   UNL     1      -9.211 -10.671  17.341  0.00  0.00    +0.000 C 
ATOM     66  H   UNL     1      -8.326 -10.324  17.882  0.00  0.00    +0.000 HD
ATOM     67  H   UNL     1      -8.941 -11.597  16.820  0.00  0.00    +0.000 HD
ATOM     68  H   UNL     1      -9.997 -10.853  18.080  0.00  0.00    +0.000 HD
ENDBRANCH  64  65
ENDBRANCH   1  64
TORSDOF 8
ENDMDL
MODEL 8
REMARK VINA RESULT:    -8.306      3.111      4.485
REMARK INTER + INTRA:         -12.388
REMARK INTER:                 -11.731
REMARK INTRA:                  -0.656
REMARK UNBOUND:                -0.926
REMARK  Name = 
REMARK  8 active torsions:
REMARK  status: ('A' for Active; 'I' for Inactive)
REMARK    1  A    between atoms: C_1  and  O_2
REMARK    2  A    between atoms: O_2  and  C_3
REMARK    3  A    between atoms: N_17  and  C_18
REMARK    4  A    between atoms: N_21  and  C_22
REMARK    5  A    between atoms: C_22  and  C_23
REMARK    6  A    between atoms: C_23  and  N_24
REMARK    7  A    between atoms: N_24  and  C_25
REMARK    8  A    between atoms: C_28  and  O_29
REMARK                            x       y       z     vdW  Elec       q    Type
REMARK                         _______ _______ _______ _____ _____    ______ ____
ROOT
ATOM      1  C   UNL     1      -8.358  -3.202  24.900  0.00  0.00    +0.000 A 
ATOM      2  C   UNL     1      -9.103  -2.103  25.306  0.00  0.00    +0.000 A 
ATOM      3  C   UNL     1      -9.754  -1.298  24.366  0.00  0.00    +0.000 A 
ATOM      4  C   UNL     1      -9.656  -1.600  22.996  0.00  0.00    +0.000 A 
ATOM      5  C   UNL     1     -10.193  -1.143  21.800  0.00  0.00    +0.000 A 
ATOM      6  C   UNL     1     -11.050  -0.027  21.722  0.00  0.00    +0.000 A 
ATOM      7  C   UNL     1     -11.687   0.174  20.486  0.00  0.00    +0.000 A 
ATOM      8  C   UNL     1     -11.205  -0.346  19.289  0.00  0.00    +0.000 A 
ATOM      9  C   UNL     1     -10.191  -1.346  19.359  0.00  0.00    +0.000 A 
ATOM     10  C   UNL     1      -9.421  -1.615  18.221  0.00  0.00    +0.000 A 
ATOM     11  C   UNL     1      -9.221  -0.578  17.293  0.00  0.00    +0.000 A 
ATOM     12  C   UNL     1      -9.971   0.579  17.518  0.00  0.00    +0.000 A 
ATOM     13  C   UNL     1      -9.645   1.942  17.884  0.00  0.00    +0.000 A 
ATOM     14  C   UNL     1     -10.842   2.573  18.188  0.00  0.00    +0.000 A 
ATOM     15  N   UNL     1     -11.793   1.665  17.743  0.00  0.00    +0.000 N 
ATOM     16  C   UNL     1     -11.243   0.427  18.105  0.00  0.00    +0.000 A 
ATOM     17  C   UNL     1      -9.787  -1.804  20.661  0.00  0.00    +0.000 A 
ATOM     18  N   UNL     1      -8.845  -2.701  21.182  0.00  0.00    +0.000 N 
ATOM     19  C   UNL     1      -8.844  -2.668  22.594  0.00  0.00    +0.000 A 
ATOM     20  C   UNL     1      -8.172  -3.466  23.538  0.00  0.00    +0.000 A 
ATOM     21  C   UNL     1     -12.583   1.280  20.643  0.00  0.00    +0.000 C 
ATOM     22  O   UNL     1     -13.537   1.686  19.991  0.00  0.00    +0.000 OA
ATOM     23  N   UNL     1     -12.143   1.861  21.793  0.00  0.00    +0.000 N 
ATOM     24  C   UNL     1     -11.257   1.133  22.531  0.00  0.00    +0.000 C 
ATOM     25  O   UNL     1     -10.729   1.543  23.536  0.00  0.00    +0.000 OA
ATOM     26  H   UNL     1      -9.208  -1.840  26.353  0.00  0.00    +0.000 HD
ATOM     27  H   UNL     1     -10.349  -0.465  24.721  0.00  0.00    +0.000 HD
ATOM     28  H   UNL     1      -8.748  -2.457  18.138  0.00  0.00    +0.000 HD
ATOM     29  H   UNL     1      -8.355  -0.575  16.642  0.00  0.00    +0.000 HD
ATOM     30  H   UNL     1      -8.659   2.350  18.056  0.00  0.00    +0.000 HD
ATOM     31  H   UNL     1     -11.126   3.556  18.539  0.00  0.00    +0.000 HD
ATOM     32  H   UNL     1      -7.550  -4.303  23.239  0.00  0.00    +0.000 HD
ATOM     33  H   UNL     1     -12.167   2.866  21.871  0.00  0.00    +0.000 HD
ENDROOT
BRANCH  15  34
ATOM     34  C   UNL     1     -12.372   1.898  16.415  0.00  0.00    +0.000 C 
ATOM     35  H   UNL     1     -12.308   0.973  15.840  0.00  0.00    +0.000 HD
ATOM     36  H   UNL     1     -11.846   2.718  15.921  0.00  0.00    +0.000 HD
ATOM     37  H   UNL     1     -13.427   2.172  16.549  0.00  0.00    +0.000 HD
ENDBRANCH  15  34
BRANCH  18  38
ATOM     38  C   UNL     1      -7.986  -3.606  20.425  0.00  0.00    +0.000 C 
ATOM     39  H   UNL     1      -7.006  -3.585  20.912  0.00  0.00    +0.000 HD
ATOM     40  H   UNL     1      -7.816  -3.194  19.424  0.00  0.00    +0.000 HD
BRANCH  38  41
ATOM     41  C   UNL     1      -8.494  -5.062  20.320  0.00  0.00    +0.000 C 
ATOM     42  H   UNL     1      -9.155  -5.245  21.165  0.00  0.00    +0.000 HD
ATOM     43  H   UNL     1      -7.624  -5.723  20.427  0.00  0.00    +0.000 HD
BRANCH  41  44
ATOM     44  N   UNL     1      -9.214  -5.428  19.094  0.00  0.00    +0.000 NA
ATOM     45  H   UNL     1      -8.679  -5.157  18.269  0.00  0.00    +0.000 HD
BRANCH  44  46
ATOM     46  C   UNL     1      -9.548  -6.866  19.031  0.00  0.00    +0.000 C 
ATOM     47  C   UNL     1      -9.331  -7.459  17.623  0.00  0.00    +0.000 C 
ATOM     48  C   UNL     1      -9.560  -8.965  17.581  0.00  0.00    +0.000 C 
ATOM     49  C   UNL     1      -8.691  -9.688  18.601  0.00  0.00    +0.000 C 
ATOM     50  C   UNL     1      -8.934  -9.140  20.005  0.00  0.00    +0.000 C 
ATOM     51  C   UNL     1      -8.701  -7.629  20.068  0.00  0.00    +0.000 C 
ATOM     52  H   UNL     1     -10.603  -6.995  19.307  0.00  0.00    +0.000 HD
ATOM     53  H   UNL     1      -8.312  -7.237  17.280  0.00  0.00    +0.000 HD
ATOM     54  H   UNL     1     -10.020  -7.008  16.900  0.00  0.00    +0.000 HD
ATOM     55  H   UNL     1      -9.351  -9.348  16.575  0.00  0.00    +0.000 HD
ATOM     56  H   UNL     1     -10.619  -9.185  17.767  0.00  0.00    +0.000 HD
ATOM     57  H   UNL     1      -7.635  -9.568  18.336  0.00  0.00    +0.000 HD
ATOM     58  H   UNL     1      -8.281  -9.656  20.720  0.00  0.00    +0.000 HD
ATOM     59  H   UNL     1      -9.960  -9.372  20.322  0.00  0.00    +0.000 HD
ATOM     60  H   UNL     1      -7.634  -7.430  19.902  0.00  0.00    +0.000 HD
ATOM     61  H   UNL     1      -8.935  -7.277  21.081  0.00  0.00    +0.000 HD
BRANCH  49  62
ATOM     62  O   UNL     1      -8.979 -11.081  18.567  0.00  0.00    +0.000 OA
ATOM     63  H   UNL     1      -9.746 -11.249  19.141  0.00  0.00    +0.000 HD
ENDBRANCH  49  62
ENDBRANCH  44  46
ENDBRANCH  41  44
ENDBRANCH  38  41
ENDBRANCH  18  38
BRANCH   1  64
ATOM     64  O   UNL     1      -7.743  -4.076  25.761  0.00  0.00    +0.000 OA
BRANCH  64  65
ATOM     65  C   UNL     1      -7.748  -3.664  27.126  0.00  0.00    +0.000 C 
ATOM     66  H   UNL     1      -8.558  -2.941  27.258  0.00  0.00    +0.000 HD
ATOM     67  H   UNL     1      -6.810  -3.166  27.398  0.00  0.00    +0.000 HD
ATOM     68  H   UNL     1      -7.950  -4.508  27.793  0.00  0.00    +0.000 HD
ENDBRANCH  64  65
ENDBRANCH   1  64
TORSDOF 8
ENDMDL
MODEL 9
REMARK VINA RESULT:    -8.259      2.671      6.471
REMARK INTER + INTRA:         -12.323
REMARK INTER:                 -11.634
REMARK INTRA:                  -0.689
REMARK UNBOUND:                -0.926
REMARK  Name = 
REMARK  8 active torsions:
REMARK  status: ('A' for Active; 'I' for Inactive)
REMARK    1  A    between atoms: C_1  and  O_2
REMARK    2  A    between atoms: O_2  and  C_3
REMARK    3  A    between atoms: N_17  and  C_18
REMARK    4  A    between atoms: N_21  and  C_22
REMARK    5  A    between atoms: C_22  and  C_23
REMARK    6  A    between atoms: C_23  and  N_24
REMARK    7  A    between atoms: N_24  and  C_25
REMARK    8  A    between atoms: C_28  and  O_29
REMARK                            x       y       z     vdW  Elec       q    Type
REMARK                         _______ _______ _______ _____ _____    ______ ____
ROOT
ATOM      1  C   UNL     1     -11.793  -3.183  14.188  0.00  0.00    +0.000 A 
ATOM      2  C   UNL     1     -12.161  -1.857  14.003  0.00  0.00    +0.000 A 
ATOM      3  C   UNL     1     -12.103  -0.948  15.064  0.00  0.00    +0.000 A 
ATOM      4  C   UNL     1     -11.672  -1.375  16.331  0.00  0.00    +0.000 A 
ATOM      5  C   UNL     1     -11.391  -0.811  17.568  0.00  0.00    +0.000 A 
ATOM      6  C   UNL     1     -11.595   0.554  17.851  0.00  0.00    +0.000 A 
ATOM      7  C   UNL     1     -11.056   1.019  19.063  0.00  0.00    +0.000 A 
ATOM      8  C   UNL     1     -10.762   0.182  20.134  0.00  0.00    +0.000 A 
ATOM      9  C   UNL     1     -10.743  -1.223  19.894  0.00  0.00    +0.000 A 
ATOM     10  C   UNL     1     -10.834  -2.100  20.982  0.00  0.00    +0.000 A 
ATOM     11  C   UNL     1     -11.515  -1.665  22.132  0.00  0.00    +0.000 A 
ATOM     12  C   UNL     1     -11.883  -0.318  22.136  0.00  0.00    +0.000 A 
ATOM     13  C   UNL     1     -13.148   0.387  22.110  0.00  0.00    +0.000 A 
ATOM     14  C   UNL     1     -12.858   1.726  21.891  0.00  0.00    +0.000 A 
ATOM     15  N   UNL     1     -11.481   1.776  22.063  0.00  0.00    +0.000 N 
ATOM     16  C   UNL     1     -11.043   0.589  21.459  0.00  0.00    +0.000 A 
ATOM     17  C   UNL     1     -10.957  -1.678  18.547  0.00  0.00    +0.000 A 
ATOM     18  N   UNL     1     -11.057  -2.912  17.889  0.00  0.00    +0.000 N 
ATOM     19  C   UNL     1     -11.372  -2.730  16.524  0.00  0.00    +0.000 A 
ATOM     20  C   UNL     1     -11.449  -3.650  15.461  0.00  0.00    +0.000 A 
ATOM     21  C   UNL     1     -11.275   2.434  19.112  0.00  0.00    +0.000 C 
ATOM     22  O   UNL     1     -10.790   3.335  19.785  0.00  0.00    +0.000 OA
ATOM     23  N   UNL     1     -12.222   2.624  18.152  0.00  0.00    +0.000 N 
ATOM     24  C   UNL     1     -12.449   1.569  17.318  0.00  0.00    +0.000 C 
ATOM     25  O   UNL     1     -13.303   1.564  16.464  0.00  0.00    +0.000 OA
ATOM     26  H   UNL     1     -12.494  -1.486  13.040  0.00  0.00    +0.000 HD
ATOM     27  H   UNL     1     -12.371   0.085  14.875  0.00  0.00    +0.000 HD
ATOM     28  H   UNL     1     -10.668  -3.166  20.908  0.00  0.00    +0.000 HD
ATOM     29  H   UNL     1     -11.964  -2.378  22.815  0.00  0.00    +0.000 HD
ATOM     30  H   UNL     1     -14.136  -0.053  22.091  0.00  0.00    +0.000 HD
ATOM     31  H   UNL     1     -13.440   2.627  21.759  0.00  0.00    +0.000 HD
ATOM     32  H   UNL     1     -11.208  -4.699  15.596  0.00  0.00    +0.000 HD
ATOM     33  H   UNL     1     -12.938   3.317  18.304  0.00  0.00    +0.000 HD
ENDROOT
BRANCH  15  34
ATOM     34  C   UNL     1     -10.985   2.209  23.375  0.00  0.00    +0.000 C 
ATOM     35  H   UNL     1     -11.668   2.961  23.773  0.00  0.00    +0.000 HD
ATOM     36  H   UNL     1      -9.969   2.596  23.277  0.00  0.00    +0.000 HD
ATOM     37  H   UNL     1     -10.979   1.334  24.039  0.00  0.00    +0.000 HD
ENDBRANCH  15  34
BRANCH  18  38
ATOM     38  C   UNL     1     -10.832  -4.233  18.465  0.00  0.00    +0.000 C 
ATOM     39  H   UNL     1     -11.404  -4.940  17.856  0.00  0.00    +0.000 HD
ATOM     40  H   UNL     1     -11.290  -4.278  19.460  0.00  0.00    +0.000 HD
BRANCH  38  41
ATOM     41  C   UNL     1      -9.353  -4.676  18.542  0.00  0.00    +0.000 C 
ATOM     42  H   UNL     1      -9.180  -5.082  19.537  0.00  0.00    +0.000 HD
ATOM     43  H   UNL     1      -8.733  -3.776  18.435  0.00  0.00    +0.000 HD
BRANCH  41  44
ATOM     44  N   UNL     1      -8.906  -5.673  17.562  0.00  0.00    +0.000 NA
ATOM     45  H   UNL     1      -7.890  -5.658  17.472  0.00  0.00    +0.000 HD
BRANCH  44  46
ATOM     46  C   UNL     1      -9.364  -7.040  17.882  0.00  0.00    +0.000 C 
ATOM     47  C   UNL     1      -9.279  -7.989  16.669  0.00  0.00    +0.000 C 
ATOM     48  C   UNL     1      -9.637  -9.427  17.024  0.00  0.00    +0.000 C 
ATOM     49  C   UNL     1      -8.777  -9.948  18.167  0.00  0.00    +0.000 C 
ATOM     50  C   UNL     1      -8.893  -9.042  19.389  0.00  0.00    +0.000 C 
ATOM     51  C   UNL     1      -8.528  -7.594  19.053  0.00  0.00    +0.000 C 
ATOM     52  H   UNL     1     -10.409  -6.992  18.217  0.00  0.00    +0.000 HD
ATOM     53  H   UNL     1      -8.266  -7.961  16.247  0.00  0.00    +0.000 HD
ATOM     54  H   UNL     1      -9.967  -7.672  15.877  0.00  0.00    +0.000 HD
ATOM     55  H   UNL     1      -9.519 -10.071  16.144  0.00  0.00    +0.000 HD
ATOM     56  H   UNL     1     -10.699  -9.489  17.295  0.00  0.00    +0.000 HD
ATOM     57  H   UNL     1      -7.731 -10.003  17.845  0.00  0.00    +0.000 HD
ATOM     58  H   UNL     1      -8.247  -9.420  20.191  0.00  0.00    +0.000 HD
ATOM     59  H   UNL     1      -9.915  -9.085  19.789  0.00  0.00    +0.000 HD
ATOM     60  H   UNL     1      -7.459  -7.548  18.806  0.00  0.00    +0.000 HD
ATOM     61  H   UNL     1      -8.673  -6.976  19.948  0.00  0.00    +0.000 HD
BRANCH  49  62
ATOM     62  O   UNL     1      -9.184 -11.270  18.503  0.00  0.00    +0.000 OA
ATOM     63  H   UNL     1     -10.131 -11.358  18.303  0.00  0.00    +0.000 HD
ENDBRANCH  49  62
ENDBRANCH  44  46
ENDBRANCH  41  44
ENDBRANCH  38  41
ENDBRANCH  18  38
BRANCH   1  64
ATOM     64  O   UNL     1     -11.761  -4.120  13.186  0.00  0.00    +0.000 OA
BRANCH  64  65
ATOM     65  C   UNL     1     -11.846  -3.581  11.868  0.00  0.00    +0.000 C 
ATOM     66  H   UNL     1     -12.498  -4.233  11.278  0.00  0.00    +0.000 HD
ATOM     67  H   UNL     1     -10.865  -3.560  11.380  0.00  0.00    +0.000 HD
ATOM     68  H   UNL     1     -12.300  -2.585  11.877  0.00  0.00    +0.000 HD
ENDBRANCH  64  65
ENDBRANCH   1  64
TORSDOF 8
ENDMDL
