
 OpenBabel01112422343D

 45 50  0  0  0  0  0  0  0  0999 V2000
    1.0115    0.5045    0.0831 C   0  0  0  0  0  0  0  0  0  0  0  0
    2.4391    0.2219   -0.2756 C   0  0  0  0  0  0  0  0  0  0  0  0
    3.0590    1.3628   -0.7818 C   0  0  0  0  0  0  0  0  0  0  0  0
    4.3877    1.5744   -0.4582 C   0  0  0  0  0  0  0  0  0  0  0  0
    5.0996    2.7916   -0.4593 C   0  0  0  0  0  0  0  0  0  0  0  0
    5.9943    2.6036    0.5496 C   0  0  0  0  0  0  0  0  0  0  0  0
    6.3196    1.2564    0.4633 N   0  0  0  0  0  0  0  0  0  0  0  0
    7.7305    0.9744    0.5687 C   0  0  0  0  0  0  0  0  0  0  0  0
    5.1851    0.5352    0.0716 C   0  0  0  0  0  0  0  0  0  0  0  0
    4.6530   -0.8205    0.0507 C   0  0  0  0  0  0  0  0  0  0  0  0
    5.3768   -2.0317    0.1396 C   0  0  0  0  0  0  0  0  0  0  0  0
    4.8165   -3.3469    0.2083 C   0  0  0  0  0  0  0  0  0  0  0  0
    3.4048   -3.4438    0.1939 C   0  0  0  0  0  0  0  0  0  0  0  0
    2.7182   -4.6720    0.1655 C   0  0  0  0  0  0  0  0  0  0  0  0
    2.9724   -6.0668    0.1617 C   0  0  0  0  0  0  0  0  0  0  0  0
    1.9257   -7.0023    0.1149 C   0  0  0  0  0  0  0  0  0  0  0  0
    0.6098   -6.5840    0.0863 C   0  0  0  0  0  0  0  0  0  0  0  0
    0.3236   -5.2246    0.0861 C   0  0  0  0  0  0  0  0  0  0  0  0
    1.3778   -4.2796    0.1083 C   0  0  0  0  0  0  0  0  0  0  0  0
    1.3340   -2.8884    0.0614 N   0  0  0  0  0  0  0  0  0  0  0  0
    0.0571   -2.2251   -0.0259 C   0  0  0  0  0  0  0  0  0  0  0  0
    2.6221   -2.3111    0.0903 C   0  0  0  0  0  0  0  0  0  0  0  0
    3.1937   -0.9629   -0.0348 C   0  0  0  0  0  0  0  0  0  0  0  0
    5.8759   -4.3200    0.2419 C   0  0  0  0  0  0  0  0  0  0  0  0
    5.9584   -5.5431    0.1745 O   0  0  0  0  0  0  0  0  0  0  0  0
    6.9887   -3.5581    0.3188 N   0  0  0  0  0  0  0  0  0  0  0  0
    6.8032   -2.2411   -0.0011 C   0  0  0  0  0  0  0  0  0  0  0  0
    7.7240   -1.5668   -0.4311 O   0  0  0  0  0  0  0  0  0  0  0  0
    0.8588    1.5776    0.2658 H   0  0  0  0  0  0  0  0  0  0  0  0
    0.7713    0.0588    1.0477 H   0  0  0  0  0  0  0  0  0  0  0  0
    0.3280    0.2513   -0.7243 H   0  0  0  0  0  0  0  0  0  0  0  0
    2.4761    2.2257   -1.0949 H   0  0  0  0  0  0  0  0  0  0  0  0
    4.7885    3.7391   -0.8742 H   0  0  0  0  0  0  0  0  0  0  0  0
    6.5831    3.3067    1.1249 H   0  0  0  0  0  0  0  0  0  0  0  0
    7.9385    0.0274    1.0422 H   0  0  0  0  0  0  0  0  0  0  0  0
    8.1962    1.7504    1.1930 H   0  0  0  0  0  0  0  0  0  0  0  0
    8.1423    1.0869   -0.4411 H   0  0  0  0  0  0  0  0  0  0  0  0
    3.9754   -6.4700    0.1807 H   0  0  0  0  0  0  0  0  0  0  0  0
    2.1506   -8.0662    0.0993 H   0  0  0  0  0  0  0  0  0  0  0  0
   -0.1993   -7.3093    0.0576 H   0  0  0  0  0  0  0  0  0  0  0  0
   -0.7241   -4.9267    0.0575 H   0  0  0  0  0  0  0  0  0  0  0  0
   -0.7716   -2.9296   -0.0767 H   0  0  0  0  0  0  0  0  0  0  0  0
    0.0285   -1.6645   -0.9563 H   0  0  0  0  0  0  0  0  0  0  0  0
   -0.1056   -1.6570    0.8873 H   0  0  0  0  0  0  0  0  0  0  0  0
    7.8890   -3.9789    0.1734 H   0  0  0  0  0  0  0  0  0  0  0  0
  1  2  1  0  0  0  0
  1 29  1  0  0  0  0
  1 30  1  0  0  0  0
  1 31  1  0  0  0  0
  2  3  1  0  0  0  0
  2 23  2  0  0  0  0
  3  4  2  0  0  0  0
  3 32  1  0  0  0  0
  4  5  1  0  0  0  0
  4  9  1  0  0  0  0
  5  6  2  0  0  0  0
  5 33  1  0  0  0  0
  6  7  1  0  0  0  0
  6 34  1  0  0  0  0
  7  8  1  0  0  0  0
  7  9  1  0  0  0  0
  8 35  1  0  0  0  0
  8 36  1  0  0  0  0
  8 37  1  0  0  0  0
  9 10  2  0  0  0  0
 10 11  1  0  0  0  0
 10 23  1  0  0  0  0
 11 12  2  0  0  0  0
 11 27  1  0  0  0  0
 12 13  1  0  0  0  0
 12 24  1  0  0  0  0
 13 14  1  0  0  0  0
 13 22  2  0  0  0  0
 14 15  1  0  0  0  0
 14 19  2  0  0  0  0
 15 16  2  0  0  0  0
 15 38  1  0  0  0  0
 16 17  1  0  0  0  0
 16 39  1  0  0  0  0
 17 18  2  0  0  0  0
 17 40  1  0  0  0  0
 18 19  1  0  0  0  0
 18 41  1  0  0  0  0
 19 20  1  0  0  0  0
 20 21  1  0  0  0  0
 20 22  1  0  0  0  0
 21 42  1  0  0  0  0
 21 43  1  0  0  0  0
 21 44  1  0  0  0  0
 22 23  1  0  0  0  0
 24 25  2  0  0  0  0
 24 26  1  0  0  0  0
 26 27  1  0  0  0  0
 26 45  1  0  0  0  0
 27 28  2  0  0  0  0
M  END
$$$$
