
 OpenBabel01112423023D

 44 46  0  0  1  0  0  0  0  0999 V2000
    1.0721    1.0588    3.6013 C   0  0  0  0  0  0  0  0  0  0  0  0
    2.2479    1.8170    3.3426 O   0  0  0  0  0  0  0  0  0  0  0  0
    3.2578    1.1846    2.6705 C   0  0  0  0  0  0  0  0  0  0  0  0
    3.2569   -0.1440    2.2506 C   0  0  0  0  0  0  0  0  0  0  0  0
    4.3566   -0.6591    1.5606 C   0  0  0  0  0  0  0  0  0  0  0  0
    5.4570    0.1523    1.2787 C   0  0  0  0  0  0  0  0  0  0  0  0
    5.4720    1.4966    1.6751 C   0  0  0  0  0  0  0  0  0  0  0  0
    6.6479    2.3841    1.3035 C   0  0  1  0  0  0  0  0  0  0  0  0
    6.1940    3.6011    0.4929 C   0  0  0  0  0  0  0  0  0  0  0  0
    7.3831    2.7825    2.4944 N   0  0  0  0  0  0  0  0  0  0  0  0
    8.7037    3.1801    2.4321 C   0  0  0  0  0  0  0  0  0  0  0  0
    9.3512    3.2219    1.3933 O   0  0  0  0  0  0  0  0  0  0  0  0
    9.3359    3.5842    3.7122 C   0  0  0  0  0  0  0  0  0  0  0  0
    8.8955    3.1341    4.9538 C   0  0  0  0  0  0  0  0  0  0  0  0
    9.5685    3.5337    6.1081 C   0  0  0  0  0  0  0  0  0  0  0  0
   10.6801    4.3758    6.0117 C   0  0  0  0  0  0  0  0  0  0  0  0
   11.4646    4.7995    7.1897 C   0  0  0  0  0  0  0  0  0  0  0  0
   12.8324    5.0930    7.0820 C   0  0  0  0  0  0  0  0  0  0  0  0
   13.5524    5.4340    8.2186 C   0  0  0  0  0  0  0  0  0  0  0  0
   13.0153    5.5116    9.4513 N   0  0  0  0  0  0  0  0  0  0  0  0
   11.6990    5.2514    9.5413 C   0  0  0  0  0  0  0  0  0  0  0  0
   11.1342    5.3216   10.7555 F   0  0  0  0  0  0  0  0  0  0  0  0
   10.8970    4.9048    8.4663 C   0  0  0  0  0  0  0  0  0  0  0  0
   11.1258    4.8111    4.8047 N   0  0  0  0  0  0  0  0  0  0  0  0
   10.4540    4.4062    3.6907 C   0  0  0  0  0  0  0  0  0  0  0  0
    4.3668    1.9916    2.3902 C   0  0  0  0  0  0  0  0  0  0  0  0
    0.3308    1.7318    4.0432 H   0  0  0  0  0  0  0  0  0  0  0  0
    1.2764    0.2623    4.3242 H   0  0  0  0  0  0  0  0  0  0  0  0
    0.6403    0.6554    2.6792 H   0  0  0  0  0  0  0  0  0  0  0  0
    2.4172   -0.8047    2.4381 H   0  0  0  0  0  0  0  0  0  0  0  0
    4.3505   -1.6954    1.2307 H   0  0  0  0  0  0  0  0  0  0  0  0
    6.2975   -0.2708    0.7317 H   0  0  0  0  0  0  0  0  0  0  0  0
    7.3414    1.8132    0.6720 H   0  0  0  0  0  0  0  0  0  0  0  0
    5.5332    4.2560    1.0718 H   0  0  0  0  0  0  0  0  0  0  0  0
    5.6525    3.2889   -0.4073 H   0  0  0  0  0  0  0  0  0  0  0  0
    7.0502    4.2071    0.1779 H   0  0  0  0  0  0  0  0  0  0  0  0
    6.8458    2.9388    3.3355 H   0  0  0  0  0  0  0  0  0  0  0  0
    8.0636    2.4422    5.0456 H   0  0  0  0  0  0  0  0  0  0  0  0
    9.2376    3.1509    7.0680 H   0  0  0  0  0  0  0  0  0  0  0  0
   13.3396    5.0438    6.1218 H   0  0  0  0  0  0  0  0  0  0  0  0
   14.6149    5.6532    8.1609 H   0  0  0  0  0  0  0  0  0  0  0  0
    9.8439    4.7299    8.6511 H   0  0  0  0  0  0  0  0  0  0  0  0
   10.8624    4.7778    2.7536 H   0  0  0  0  0  0  0  0  0  0  0  0
    4.3469    3.0281    2.7202 H   0  0  0  0  0  0  0  0  0  0  0  0
  1  2  1  0  0  0  0
  1 27  1  0  0  0  0
  1 28  1  0  0  0  0
  1 29  1  0  0  0  0
  2  3  1  0  0  0  0
  3  4  1  0  0  0  0
  3 26  2  0  0  0  0
  4  5  2  0  0  0  0
  4 30  1  0  0  0  0
  5  6  1  0  0  0  0
  5 31  1  0  0  0  0
  6  7  2  0  0  0  0
  6 32  1  0  0  0  0
  7  8  1  0  0  0  0
  7 26  1  0  0  0  0
  8  9  1  0  0  0  0
  8 10  1  0  0  0  0
  8 33  1  6  0  0  0
  9 34  1  0  0  0  0
  9 35  1  0  0  0  0
  9 36  1  0  0  0  0
 10 11  1  0  0  0  0
 10 37  1  0  0  0  0
 11 12  2  0  0  0  0
 11 13  1  0  0  0  0
 13 14  1  0  0  0  0
 13 25  2  0  0  0  0
 14 15  2  0  0  0  0
 14 38  1  0  0  0  0
 15 16  1  0  0  0  0
 15 39  1  0  0  0  0
 16 17  1  0  0  0  0
 16 24  2  0  0  0  0
 17 18  1  0  0  0  0
 17 23  2  0  0  0  0
 18 19  2  0  0  0  0
 18 40  1  0  0  0  0
 19 20  1  0  0  0  0
 19 41  1  0  0  0  0
 20 21  2  0  0  0  0
 21 22  1  0  0  0  0
 21 23  1  0  0  0  0
 23 42  1  0  0  0  0
 24 25  1  0  0  0  0
 25 43  1  0  0  0  0
 26 44  1  0  0  0  0
M  END
$$$$
