REMARK  Name = 
REMARK  0 active torsions:
REMARK  status: ('A' for Active; 'I' for Inactive)
REMARK                            x       y       z     vdW  Elec       q    Type
REMARK                         _______ _______ _______ _____ _____    ______ ____
ROOT
ATOM      1  O   UNL     1      -3.280  -2.345   0.002  0.00  0.00    +0.000 OA
ATOM      2  C   UNL     1      -2.064  -2.197   0.001  0.00  0.00    +0.000 C 
ATOM      3  N   UNL     1      -1.205  -3.291  -0.000  0.00  0.00    +0.000 N 
ATOM      4  C   UNL     1       0.212  -2.996   0.001  0.00  0.00    +0.000 C 
ATOM      5  C   UNL     1       0.163  -1.529   0.000  0.00  0.00    +0.000 A 
ATOM      6  C   UNL     1      -1.186  -1.057   0.001  0.00  0.00    +0.000 A 
ATOM      7  C   UNL     1      -1.413   0.345   0.001  0.00  0.00    +0.000 A 
ATOM      8  C   UNL     1      -2.633   1.020   0.000  0.00  0.00    +0.000 A 
ATOM      9  C   UNL     1      -4.010   0.724  -0.000  0.00  0.00    +0.000 A 
ATOM     10  C   UNL     1      -4.947   1.767  -0.001  0.00  0.00    +0.000 A 
ATOM     11  C   UNL     1      -4.537   3.096  -0.001  0.00  0.00    +0.000 A 
ATOM     12  C   UNL     1      -3.181   3.427   0.001  0.00  0.00    +0.000 A 
ATOM     13  C   UNL     1      -2.250   2.379   0.001  0.00  0.00    +0.000 A 
ATOM     14  N   UNL     1      -0.861   2.446   0.001  0.00  0.00    +0.000 N 
ATOM     15  C   UNL     1      -0.344   1.186   0.001  0.00  0.00    +0.000 A 
ATOM     16  C   UNL     1       0.949   0.722  -0.000  0.00  0.00    +0.000 A 
ATOM     17  N   UNL     1       2.156   1.355  -0.001  0.00  0.00    +0.000 N 
ATOM     18  C   UNL     1       3.177   0.408  -0.001  0.00  0.00    +0.000 A 
ATOM     19  C   UNL     1       4.564   0.607  -0.001  0.00  0.00    +0.000 A 
ATOM     20  C   UNL     1       5.384  -0.522  -0.001  0.00  0.00    +0.000 A 
ATOM     21  C   UNL     1       4.839  -1.804  -0.000  0.00  0.00    +0.000 A 
ATOM     22  C   UNL     1       3.451  -1.998  -0.000  0.00  0.00    +0.000 A 
ATOM     23  C   UNL     1       2.597  -0.878  -0.000  0.00  0.00    +0.000 A 
ATOM     24  C   UNL     1       1.232  -0.604  -0.000  0.00  0.00    +0.000 A 
ATOM     25  H   UNL     1      -1.596  -4.222   0.000  0.00  0.00    +0.000 HD
ATOM     26  H   UNL     1       0.662  -3.406  -0.906  0.00  0.00    +0.000 HD
ATOM     27  H   UNL     1       0.660  -3.405   0.908  0.00  0.00    +0.000 HD
ATOM     28  H   UNL     1      -4.369  -0.299  -0.001  0.00  0.00    +0.000 HD
ATOM     29  H   UNL     1      -6.007   1.528  -0.002  0.00  0.00    +0.000 HD
ATOM     30  H   UNL     1      -5.282   3.888  -0.002  0.00  0.00    +0.000 HD
ATOM     31  H   UNL     1      -2.865   4.465   0.001  0.00  0.00    +0.000 HD
ATOM     32  H   UNL     1      -0.333   3.305   0.002  0.00  0.00    +0.000 HD
ATOM     33  H   UNL     1       2.304   2.353  -0.002  0.00  0.00    +0.000 HD
ATOM     34  H   UNL     1       4.993   1.604  -0.002  0.00  0.00    +0.000 HD
ATOM     35  H   UNL     1       6.465  -0.396  -0.001  0.00  0.00    +0.000 HD
ATOM     36  H   UNL     1       5.501  -2.667  -0.000  0.00  0.00    +0.000 HD
ATOM     37  H   UNL     1       3.057  -3.008   0.000  0.00  0.00    +0.000 HD
ENDROOT
TORSDOF 0
