REMARK  Name = 
REMARK  7 active torsions:
REMARK  status: ('A' for Active; 'I' for Inactive)
REMARK    1  A    between atoms: C_1  and  O_2
REMARK    2  A    between atoms: O_2  and  C_3
REMARK    3  A    between atoms: C_4  and  N_5
REMARK    4  A    between atoms: N_5  and  C_6
REMARK    5  A    between atoms: N_5  and  S_7
REMARK    6  A    between atoms: S_7  and  C_8
REMARK    7  A    between atoms: C_14  and  C_15
REMARK                            x       y       z     vdW  Elec       q    Type
REMARK                         _______ _______ _______ _____ _____    ______ ____
ROOT
ATOM      1  C   UNL     1       2.214  -0.398   0.409  0.00  0.00    +0.000 C 
ATOM      2  C   UNL     1       2.644   1.088   0.420  0.00  0.00    +0.000 C 
ATOM      3  C   UNL     1       1.494   2.020   0.077  0.00  0.00    +0.000 C 
ATOM      4  C   UNL     1       0.314   1.725   1.005  0.00  0.00    +0.000 C 
ATOM      5  O   UNL     1       0.576   0.681   1.949  0.00  0.00    +0.000 OA
ATOM      6  C   UNL     1       1.031  -0.596   1.429  0.00  0.00    +0.000 C 
ATOM      7  N   UNL     1      -0.103  -1.339   0.880  0.00  0.00    +0.000 N 
ATOM      8  C   UNL     1      -0.223  -2.689   0.490  0.00  0.00    +0.000 A 
ATOM      9  C   UNL     1       0.332  -3.896   0.950  0.00  0.00    +0.000 A 
ATOM     10  C   UNL     1       0.239  -5.030   0.134  0.00  0.00    +0.000 A 
ATOM     11  C   UNL     1      -0.314  -4.959  -1.138  0.00  0.00    +0.000 A 
ATOM     12  C   UNL     1      -1.081  -3.853  -1.496  0.00  0.00    +0.000 A 
ATOM     13  C   UNL     1      -1.198  -2.794  -0.580  0.00  0.00    +0.000 A 
ATOM     14  C   UNL     1      -2.054  -1.714  -0.370  0.00  0.00    +0.000 A 
ATOM     15  C   UNL     1      -3.444  -1.689  -0.490  0.00  0.00    +0.000 A 
ATOM     16  C   UNL     1      -4.056  -0.491  -0.043  0.00  0.00    +0.000 A 
ATOM     17  C   UNL     1      -3.124   0.512   0.311  0.00  0.00    +0.000 A 
ATOM     18  C   UNL     1      -3.232   1.901   0.045  0.00  0.00    +0.000 A 
ATOM     19  C   UNL     1      -4.282   2.820  -0.135  0.00  0.00    +0.000 A 
ATOM     20  C   UNL     1      -4.020   4.069  -0.708  0.00  0.00    +0.000 A 
ATOM     21  C   UNL     1      -2.748   4.387  -1.177  0.00  0.00    +0.000 A 
ATOM     22  C   UNL     1      -1.654   3.568  -0.890  0.00  0.00    +0.000 A 
ATOM     23  C   UNL     1      -1.878   2.386  -0.167  0.00  0.00    +0.000 A 
ATOM     24  N   UNL     1      -0.956   1.482   0.376  0.00  0.00    +0.000 N 
ATOM     25  C   UNL     1      -1.755   0.398   0.488  0.00  0.00    +0.000 A 
ATOM     26  C   UNL     1      -1.255  -0.865   0.380  0.00  0.00    +0.000 A 
ATOM     27  C   UNL     1      -5.458  -0.693   0.013  0.00  0.00    +0.000 C 
ATOM     28  O   UNL     1      -6.398   0.016   0.357  0.00  0.00    +0.000 OA
ATOM     29  N   UNL     1      -5.613  -2.028  -0.382  0.00  0.00    +0.000 N 
ATOM     30  C   UNL     1      -4.392  -2.776  -0.648  0.00  0.00    +0.000 C 
ATOM     31  H   UNL     1       3.069  -0.947   0.826  0.00  0.00    +0.000 HD
ATOM     32  H   UNL     1       2.883   1.297   1.474  0.00  0.00    +0.000 HD
ATOM     33  H   UNL     1       1.794   3.064   0.230  0.00  0.00    +0.000 HD
ATOM     34  H   UNL     1       1.201   1.982  -0.974  0.00  0.00    +0.000 HD
ATOM     35  H   UNL     1       0.144   2.622   1.615  0.00  0.00    +0.000 HD
ATOM     36  H   UNL     1       0.772  -3.975   1.931  0.00  0.00    +0.000 HD
ATOM     37  H   UNL     1       0.646  -5.972   0.489  0.00  0.00    +0.000 HD
ATOM     38  H   UNL     1      -0.206  -5.792  -1.827  0.00  0.00    +0.000 HD
ATOM     39  H   UNL     1      -1.550  -3.801  -2.475  0.00  0.00    +0.000 HD
ATOM     40  H   UNL     1      -5.294   2.562   0.172  0.00  0.00    +0.000 HD
ATOM     41  H   UNL     1      -4.832   4.781  -0.835  0.00  0.00    +0.000 HD
ATOM     42  H   UNL     1      -2.599   5.296  -1.755  0.00  0.00    +0.000 HD
ATOM     43  H   UNL     1      -0.667   3.829  -1.263  0.00  0.00    +0.000 HD
ATOM     44  H   UNL     1      -6.538  -2.421  -0.451  0.00  0.00    +0.000 HD
ATOM     45  H   UNL     1      -4.415  -3.217  -1.644  0.00  0.00    +0.000 HD
ATOM     46  H   UNL     1      -4.243  -3.526   0.137  0.00  0.00    +0.000 HD
ENDROOT
BRANCH   6  47
ATOM     47  C   UNL     1       1.528  -1.267   2.722  0.00  0.00    +0.000 C 
ATOM     48  H   UNL     1       2.433  -0.770   3.092  0.00  0.00    +0.000 HD
ATOM     49  H   UNL     1       1.774  -2.319   2.600  0.00  0.00    +0.000 HD
ATOM     50  H   UNL     1       0.783  -1.178   3.523  0.00  0.00    +0.000 HD
ENDBRANCH   6  47
BRANCH   1  51
ATOM     51  O   UNL     1       2.078  -1.026  -0.877  0.00  0.00    +0.000 OA
BRANCH  51  52
ATOM     52  C   UNL     1       1.221  -0.508  -1.878  0.00  0.00    +0.000 C 
ATOM     53  H   UNL     1       1.617   0.396  -2.335  0.00  0.00    +0.000 HD
ATOM     54  H   UNL     1       1.155  -1.253  -2.676  0.00  0.00    +0.000 HD
ATOM     55  H   UNL     1       0.217  -0.291  -1.537  0.00  0.00    +0.000 HD
ENDBRANCH  51  52
ENDBRANCH   1  51
BRANCH   2  56
ATOM     56  N   UNL     1       3.927   1.351  -0.310  0.00  0.00    +0.000 NA
BRANCH  56  57
ATOM     57  C   UNL     1       3.962   1.189  -1.771  0.00  0.00    +0.000 C 
ATOM     58  H   UNL     1       3.834   0.138  -2.034  0.00  0.00    +0.000 HD
ATOM     59  H   UNL     1       4.931   1.457  -2.197  0.00  0.00    +0.000 HD
ATOM     60  H   UNL     1       3.208   1.811  -2.257  0.00  0.00    +0.000 HD
ENDBRANCH  56  57
BRANCH  56  61
ATOM     61  S   UNL     1       4.975   2.518   0.338  0.00  0.00    +0.000 S 
ATOM     62  O   UNL     1       6.137   2.608  -0.515  0.00  0.00    +0.000 OA
ATOM     63  O   UNL     1       4.186   3.684   0.667  0.00  0.00    +0.000 OA
BRANCH  61  64
ATOM     64  C   UNL     1       5.485   1.726   1.852  0.00  0.00    +0.000 C 
ATOM     65  H   UNL     1       5.243   0.662   1.809  0.00  0.00    +0.000 HD
ATOM     66  H   UNL     1       4.966   2.198   2.686  0.00  0.00    +0.000 HD
ATOM     67  H   UNL     1       6.566   1.846   1.954  0.00  0.00    +0.000 HD
ENDBRANCH  61  64
ENDBRANCH  56  61
ENDBRANCH   2  56
TORSDOF 7
