REMARK  Name = 
REMARK  4 active torsions:
REMARK  status: ('A' for Active; 'I' for Inactive)
REMARK    1  A    between atoms: C_1  and  C_2
REMARK    2  A    between atoms: C_4  and  C_5
REMARK    3  A    between atoms: C_7  and  N_8
REMARK    4  A    between atoms: C_9  and  C_10
REMARK                            x       y       z     vdW  Elec       q    Type
REMARK                         _______ _______ _______ _____ _____    ______ ____
ROOT
ATOM      1  C   UNL     1      -2.674   0.179  -0.014  0.00  0.00    +0.000 A 
ATOM      2  C   UNL     1      -2.025   1.407  -0.011  0.00  0.00    +0.000 A 
ATOM      3  C   UNL     1      -0.620   1.470  -0.004  0.00  0.00    +0.000 A 
ATOM      4  C   UNL     1       0.086   0.235  -0.001  0.00  0.00    +0.000 A 
ATOM      5  C   UNL     1       1.485  -0.120   0.006  0.00  0.00    +0.000 A 
ATOM      6  C   UNL     1       1.709  -1.487   0.007  0.00  0.00    +0.000 A 
ATOM      7  S   UNL     1       0.231  -2.350  -0.001  0.00  0.00    +0.000 S 
ATOM      8  C   UNL     1      -0.689  -0.922  -0.005  0.00  0.00    +0.000 A 
ATOM      9  N   UNL     1      -2.034  -1.005  -0.012  0.00  0.00    +0.000 NA
ATOM     10  H   UNL     1      -2.608   2.324  -0.014  0.00  0.00    +0.000 HD
ENDROOT
BRANCH   6  11
ATOM     11  C   UNL     1       2.988  -2.182   0.014  0.00  0.00    +0.000 C 
ATOM     12  N   UNL     1       2.953  -3.550   0.015  0.00  0.00    +0.000 N 
ATOM     13  O   UNL     1       4.084  -1.622   0.017  0.00  0.00    +0.000 OA
ATOM     14  H   UNL     1       2.082  -4.061   0.011  0.00  0.00    +0.000 HD
ATOM     15  H   UNL     1       3.831  -4.050   0.019  0.00  0.00    +0.000 HD
ENDBRANCH   6  11
BRANCH   1  16
ATOM     16  C   UNL     1      -4.174   0.118  -0.018  0.00  0.00    +0.000 C 
ATOM     17  H   UNL     1      -4.622   1.116  -0.020  0.00  0.00    +0.000 HD
ATOM     18  H   UNL     1      -4.526  -0.411   0.873  0.00  0.00    +0.000 HD
ATOM     19  H   UNL     1      -4.522  -0.414  -0.909  0.00  0.00    +0.000 HD
ENDBRANCH   1  16
BRANCH   3  20
ATOM     20  C   UNL     1       0.043   2.817   0.003  0.00  0.00    +0.000 C 
ATOM     21  H   UNL     1      -0.689   3.632  -0.001  0.00  0.00    +0.000 HD
ATOM     22  H   UNL     1       0.669   2.932  -0.888  0.00  0.00    +0.000 HD
ATOM     23  H   UNL     1       0.657   2.929   0.902  0.00  0.00    +0.000 HD
ENDBRANCH   3  20
BRANCH   5  24
ATOM     24  N   UNL     1       2.500   0.774   0.012  0.00  0.00    +0.000 N 
ATOM     25  H   UNL     1       2.388   1.779   0.007  0.00  0.00    +0.000 HD
ATOM     26  H   UNL     1       3.475   0.462   0.014  0.00  0.00    +0.000 HD
ENDBRANCH   5  24
TORSDOF 4
