MODEL 1
REMARK VINA RESULT:    -9.168      0.000      0.000
REMARK INTER + INTRA:         -16.118
REMARK INTER:                 -14.260
REMARK INTRA:                  -1.858
REMARK UNBOUND:                -1.858
REMARK  Name = 
REMARK  10 active torsions:
REMARK  status: ('A' for Active; 'I' for Inactive)
REMARK    1  A    between atoms: N_1  and  C_2
REMARK    2  A    between atoms: C_2  and  C_3
REMARK    3  A    between atoms: C_3  and  C_4
REMARK    4  A    between atoms: C_4  and  N_5
REMARK    5  A    between atoms: N_5  and  C_6
REMARK    6  A    between atoms: C_6  and  C_7
REMARK    7  A    between atoms: C_7  and  C_8
REMARK    8  A    between atoms: C_8  and  N_9
REMARK    9  A    between atoms: N_9  and  C_10
REMARK   10  A    between atoms: C_11  and  C_12
REMARK                            x       y       z     vdW  Elec       q    Type
REMARK                         _______ _______ _______ _____ _____    ______ ____
ROOT
ATOM      1  N   UNL     1      -7.201  -6.393  19.603  0.00  0.00    +0.000 N 
ATOM      2  H   UNL     1      -7.200  -5.975  20.541  0.00  0.00    +0.000 HD
ENDROOT
BRANCH   1   3
ATOM      3  C   UNL     1      -8.440  -6.089  19.035  0.00  0.00    +0.000 C 
ATOM      4  C   UNL     1      -9.318  -6.820  18.334  0.00  0.00    +0.000 C 
ATOM      5  C   UNL     1     -10.445  -5.935  17.958  0.00  0.00    +0.000 C 
ATOM      6  O   UNL     1     -11.427  -6.233  17.301  0.00  0.00    +0.000 OA
ATOM      7  N   UNL     1     -10.193  -4.716  18.486  0.00  0.00    +0.000 N 
ATOM      8  C   UNL     1      -9.036  -4.727  19.175  0.00  0.00    +0.000 C 
ATOM      9  O   UNL     1      -8.542  -3.821  19.819  0.00  0.00    +0.000 OA
ATOM     10  H   UNL     1     -10.812  -3.929  18.415  0.00  0.00    +0.000 HD
BRANCH   4  11
ATOM     11  C   UNL     1      -9.242  -8.206  18.078  0.00  0.00    +0.000 A 
ATOM     12  C   UNL     1      -8.943  -9.302  18.863  0.00  0.00    +0.000 A 
ATOM     13  C   UNL     1      -8.821 -10.434  18.013  0.00  0.00    +0.000 A 
ATOM     14  C   UNL     1      -8.454 -11.776  18.226  0.00  0.00    +0.000 A 
ATOM     15  C   UNL     1      -8.391 -12.647  17.132  0.00  0.00    +0.000 A 
ATOM     16  C   UNL     1      -8.700 -12.201  15.848  0.00  0.00    +0.000 A 
ATOM     17  C   UNL     1      -9.073 -10.872  15.615  0.00  0.00    +0.000 A 
ATOM     18  C   UNL     1      -9.115 -10.013  16.720  0.00  0.00    +0.000 A 
ATOM     19  N   UNL     1      -9.402  -8.670  16.791  0.00  0.00    +0.000 N 
ATOM     20  H   UNL     1      -8.755  -9.281  19.930  0.00  0.00    +0.000 HD
ATOM     21  H   UNL     1      -8.199 -12.124  19.221  0.00  0.00    +0.000 HD
ATOM     22  H   UNL     1      -8.091 -13.680  17.289  0.00  0.00    +0.000 HD
ATOM     23  H   UNL     1      -8.642 -12.894  15.012  0.00  0.00    +0.000 HD
ATOM     24  H   UNL     1      -9.301 -10.525  14.613  0.00  0.00    +0.000 HD
ATOM     25  H   UNL     1      -9.622  -8.079  15.999  0.00  0.00    +0.000 HD
ENDBRANCH   4  11
ENDBRANCH   1   3
BRANCH   1  26
ATOM     26  C   UNL     1      -6.002  -5.905  18.889  0.00  0.00    +0.000 C 
ATOM     27  H   UNL     1      -5.788  -6.582  18.056  0.00  0.00    +0.000 HD
ATOM     28  H   UNL     1      -6.211  -4.920  18.458  0.00  0.00    +0.000 HD
BRANCH  26  29
ATOM     29  C   UNL     1      -4.797  -5.830  19.826  0.00  0.00    +0.000 C 
ATOM     30  H   UNL     1      -4.833  -6.651  20.554  0.00  0.00    +0.000 HD
ATOM     31  H   UNL     1      -3.877  -5.975  19.245  0.00  0.00    +0.000 HD
BRANCH  29  32
ATOM     32  C   UNL     1      -4.707  -4.489  20.562  0.00  0.00    +0.000 C 
ATOM     33  H   UNL     1      -4.034  -4.612  21.420  0.00  0.00    +0.000 HD
ATOM     34  H   UNL     1      -4.262  -3.741  19.896  0.00  0.00    +0.000 HD
BRANCH  32  35
ATOM     35  N   UNL     1      -6.019  -4.050  21.029  0.00  0.00    +0.000 NA
ATOM     36  H   UNL     1      -6.382  -3.297  20.447  0.00  0.00    +0.000 HD
BRANCH  35  37
ATOM     37  C   UNL     1      -5.970  -3.568  22.408  0.00  0.00    +0.000 C 
ATOM     38  H   UNL     1      -6.356  -4.333  23.090  0.00  0.00    +0.000 HD
ATOM     39  H   UNL     1      -4.936  -3.342  22.692  0.00  0.00    +0.000 HD
BRANCH  37  40
ATOM     40  C   UNL     1      -6.818  -2.299  22.517  0.00  0.00    +0.000 C 
ATOM     41  H   UNL     1      -6.227  -1.491  22.965  0.00  0.00    +0.000 HD
ATOM     42  H   UNL     1      -7.112  -1.963  21.513  0.00  0.00    +0.000 HD
BRANCH  40  43
ATOM     43  C   UNL     1      -8.061  -2.556  23.365  0.00  0.00    +0.000 C 
ATOM     44  H   UNL     1      -7.780  -2.695  24.414  0.00  0.00    +0.000 HD
ATOM     45  H   UNL     1      -8.735  -1.695  23.309  0.00  0.00    +0.000 HD
BRANCH  43  46
ATOM     46  N   UNL     1      -8.764  -3.741  22.889  0.00  0.00    +0.000 NA
ATOM     47  H   UNL     1      -9.736  -3.703  23.194  0.00  0.00    +0.000 HD
ATOM     48  H   UNL     1      -8.363  -4.574  23.319  0.00  0.00    +0.000 HD
ENDBRANCH  43  46
ENDBRANCH  40  43
ENDBRANCH  37  40
ENDBRANCH  35  37
ENDBRANCH  32  35
ENDBRANCH  29  32
ENDBRANCH  26  29
ENDBRANCH   1  26
TORSDOF 10
ENDMDL
MODEL 2
REMARK VINA RESULT:    -9.076      3.120      4.362
REMARK INTER + INTRA:         -15.974
REMARK INTER:                 -14.135
REMARK INTRA:                  -1.839
REMARK UNBOUND:                -1.858
REMARK  Name = 
REMARK  10 active torsions:
REMARK  status: ('A' for Active; 'I' for Inactive)
REMARK    1  A    between atoms: N_1  and  C_2
REMARK    2  A    between atoms: C_2  and  C_3
REMARK    3  A    between atoms: C_3  and  C_4
REMARK    4  A    between atoms: C_4  and  N_5
REMARK    5  A    between atoms: N_5  and  C_6
REMARK    6  A    between atoms: C_6  and  C_7
REMARK    7  A    between atoms: C_7  and  C_8
REMARK    8  A    between atoms: C_8  and  N_9
REMARK    9  A    between atoms: N_9  and  C_10
REMARK   10  A    between atoms: C_11  and  C_12
REMARK                            x       y       z     vdW  Elec       q    Type
REMARK                         _______ _______ _______ _____ _____    ______ ____
ROOT
ATOM      1  N   UNL     1      -9.858  -7.642  16.779  0.00  0.00    +0.000 N 
ATOM      2  H   UNL     1     -10.283  -8.457  16.322  0.00  0.00    +0.000 HD
ENDROOT
BRANCH   1   3
ATOM      3  C   UNL     1      -9.423  -8.074  18.035  0.00  0.00    +0.000 C 
ATOM      4  C   UNL     1      -9.031  -9.270  18.494  0.00  0.00    +0.000 C 
ATOM      5  C   UNL     1      -8.723  -9.122  19.936  0.00  0.00    +0.000 C 
ATOM      6  O   UNL     1      -8.354  -9.994  20.703  0.00  0.00    +0.000 OA
ATOM      7  N   UNL     1      -8.919  -7.823  20.257  0.00  0.00    +0.000 N 
ATOM      8  C   UNL     1      -9.303  -7.118  19.176  0.00  0.00    +0.000 C 
ATOM      9  O   UNL     1      -9.506  -5.922  19.097  0.00  0.00    +0.000 OA
ATOM     10  H   UNL     1      -8.749  -7.432  21.167  0.00  0.00    +0.000 HD
BRANCH   4  11
ATOM     11  C   UNL     1      -8.849 -10.444  17.732  0.00  0.00    +0.000 A 
ATOM     12  C   UNL     1      -8.762 -10.693  16.377  0.00  0.00    +0.000 A 
ATOM     13  C   UNL     1      -8.781 -12.101  16.184  0.00  0.00    +0.000 A 
ATOM     14  C   UNL     1      -8.806 -12.926  15.045  0.00  0.00    +0.000 A 
ATOM     15  C   UNL     1      -8.867 -14.315  15.211  0.00  0.00    +0.000 A 
ATOM     16  C   UNL     1      -8.888 -14.879  16.485  0.00  0.00    +0.000 A 
ATOM     17  C   UNL     1      -8.858 -14.077  17.632  0.00  0.00    +0.000 A 
ATOM     18  C   UNL     1      -8.813 -12.690  17.444  0.00  0.00    +0.000 A 
ATOM     19  N   UNL     1      -8.816 -11.667  18.364  0.00  0.00    +0.000 N 
ATOM     20  H   UNL     1      -8.764  -9.941  15.597  0.00  0.00    +0.000 HD
ATOM     21  H   UNL     1      -8.804 -12.491  14.051  0.00  0.00    +0.000 HD
ATOM     22  H   UNL     1      -8.903 -14.957  14.334  0.00  0.00    +0.000 HD
ATOM     23  H   UNL     1      -8.938 -15.960  16.592  0.00  0.00    +0.000 HD
ATOM     24  H   UNL     1      -8.887 -14.518  18.622  0.00  0.00    +0.000 HD
ATOM     25  H   UNL     1      -8.870 -11.788  19.369  0.00  0.00    +0.000 HD
ENDBRANCH   4  11
ENDBRANCH   1   3
BRANCH   1  26
ATOM     26  C   UNL     1      -8.827  -7.098  15.869  0.00  0.00    +0.000 C 
ATOM     27  H   UNL     1      -7.969  -6.770  16.463  0.00  0.00    +0.000 HD
ATOM     28  H   UNL     1      -8.474  -7.893  15.203  0.00  0.00    +0.000 HD
BRANCH  26  29
ATOM     29  C   UNL     1      -9.377  -5.928  15.053  0.00  0.00    +0.000 C 
ATOM     30  H   UNL     1      -8.570  -5.223  14.813  0.00  0.00    +0.000 HD
ATOM     31  H   UNL     1      -9.754  -6.302  14.092  0.00  0.00    +0.000 HD
BRANCH  29  32
ATOM     32  C   UNL     1     -10.512  -5.191  15.772  0.00  0.00    +0.000 C 
ATOM     33  H   UNL     1     -11.059  -4.595  15.031  0.00  0.00    +0.000 HD
ATOM     34  H   UNL     1     -11.210  -5.924  16.191  0.00  0.00    +0.000 HD
BRANCH  32  35
ATOM     35  N   UNL     1      -9.995  -4.314  16.819  0.00  0.00    +0.000 NA
ATOM     36  H   UNL     1     -10.042  -4.765  17.731  0.00  0.00    +0.000 HD
BRANCH  35  37
ATOM     37  C   UNL     1     -10.747  -3.062  16.898  0.00  0.00    +0.000 C 
ATOM     38  H   UNL     1     -10.513  -2.426  16.037  0.00  0.00    +0.000 HD
ATOM     39  H   UNL     1     -11.823  -3.268  16.893  0.00  0.00    +0.000 HD
BRANCH  37  40
ATOM     40  C   UNL     1     -10.370  -2.342  18.194  0.00  0.00    +0.000 C 
ATOM     41  H   UNL     1      -9.365  -2.645  18.512  0.00  0.00    +0.000 HD
ATOM     42  H   UNL     1     -10.339  -1.258  18.020  0.00  0.00    +0.000 HD
BRANCH  40  43
ATOM     43  C   UNL     1     -11.375  -2.663  19.297  0.00  0.00    +0.000 C 
ATOM     44  H   UNL     1     -10.899  -2.573  20.280  0.00  0.00    +0.000 HD
ATOM     45  H   UNL     1     -12.208  -1.953  19.262  0.00  0.00    +0.000 HD
BRANCH  43  46
ATOM     46  N   UNL     1     -11.897  -4.014  19.131  0.00  0.00    +0.000 NA
ATOM     47  H   UNL     1     -12.908  -4.003  19.256  0.00  0.00    +0.000 HD
ATOM     48  H   UNL     1     -11.526  -4.617  19.865  0.00  0.00    +0.000 HD
ENDBRANCH  43  46
ENDBRANCH  40  43
ENDBRANCH  37  40
ENDBRANCH  35  37
ENDBRANCH  32  35
ENDBRANCH  29  32
ENDBRANCH  26  29
ENDBRANCH   1  26
TORSDOF 10
ENDMDL
MODEL 3
REMARK VINA RESULT:    -8.941      2.020      7.791
REMARK INTER + INTRA:         -15.764
REMARK INTER:                 -14.399
REMARK INTRA:                  -1.365
REMARK UNBOUND:                -1.858
REMARK  Name = 
REMARK  10 active torsions:
REMARK  status: ('A' for Active; 'I' for Inactive)
REMARK    1  A    between atoms: N_1  and  C_2
REMARK    2  A    between atoms: C_2  and  C_3
REMARK    3  A    between atoms: C_3  and  C_4
REMARK    4  A    between atoms: C_4  and  N_5
REMARK    5  A    between atoms: N_5  and  C_6
REMARK    6  A    between atoms: C_6  and  C_7
REMARK    7  A    between atoms: C_7  and  C_8
REMARK    8  A    between atoms: C_8  and  N_9
REMARK    9  A    between atoms: N_9  and  C_10
REMARK   10  A    between atoms: C_11  and  C_12
REMARK                            x       y       z     vdW  Elec       q    Type
REMARK                         _______ _______ _______ _____ _____    ______ ____
ROOT
ATOM      1  N   UNL     1      -8.700  -8.715  17.817  0.00  0.00    +0.000 N 
ATOM      2  H   UNL     1      -8.857  -9.257  16.960  0.00  0.00    +0.000 HD
ENDROOT
BRANCH   1   3
ATOM      3  C   UNL     1      -9.611  -7.657  17.790  0.00  0.00    +0.000 C 
ATOM      4  C   UNL     1      -9.557  -6.405  18.265  0.00  0.00    +0.000 C 
ATOM      5  C   UNL     1     -10.854  -5.752  17.968  0.00  0.00    +0.000 C 
ATOM      6  O   UNL     1     -11.191  -4.618  18.260  0.00  0.00    +0.000 OA
ATOM      7  N   UNL     1     -11.610  -6.650  17.296  0.00  0.00    +0.000 N 
ATOM      8  C   UNL     1     -10.935  -7.800  17.115  0.00  0.00    +0.000 C 
ATOM      9  O   UNL     1     -11.294  -8.789  16.504  0.00  0.00    +0.000 OA
ATOM     10  H   UNL     1     -12.530  -6.461  16.939  0.00  0.00    +0.000 HD
BRANCH   4  11
ATOM     11  C   UNL     1      -8.439  -5.778  18.856  0.00  0.00    +0.000 A 
ATOM     12  C   UNL     1      -7.075  -5.925  18.701  0.00  0.00    +0.000 A 
ATOM     13  C   UNL     1      -6.430  -5.164  19.713  0.00  0.00    +0.000 A 
ATOM     14  C   UNL     1      -5.088  -5.001  20.101  0.00  0.00    +0.000 A 
ATOM     15  C   UNL     1      -4.790  -4.188  21.201  0.00  0.00    +0.000 A 
ATOM     16  C   UNL     1      -5.805  -3.534  21.897  0.00  0.00    +0.000 A 
ATOM     17  C   UNL     1      -7.146  -3.678  21.525  0.00  0.00    +0.000 A 
ATOM     18  C   UNL     1      -7.425  -4.508  20.432  0.00  0.00    +0.000 A 
ATOM     19  N   UNL     1      -8.628  -4.866  19.871  0.00  0.00    +0.000 N 
ATOM     20  H   UNL     1      -6.589  -6.575  17.983  0.00  0.00    +0.000 HD
ATOM     21  H   UNL     1      -4.296  -5.518  19.570  0.00  0.00    +0.000 HD
ATOM     22  H   UNL     1      -3.756  -4.072  21.515  0.00  0.00    +0.000 HD
ATOM     23  H   UNL     1      -5.553  -2.909  22.751  0.00  0.00    +0.000 HD
ATOM     24  H   UNL     1      -7.935  -3.178  22.077  0.00  0.00    +0.000 HD
ATOM     25  H   UNL     1      -9.537  -4.570  20.205  0.00  0.00    +0.000 HD
ENDBRANCH   4  11
ENDBRANCH   1   3
BRANCH   1  26
ATOM     26  C   UNL     1      -8.793  -9.645  18.964  0.00  0.00    +0.000 C 
ATOM     27  H   UNL     1      -8.083  -9.327  19.734  0.00  0.00    +0.000 HD
ATOM     28  H   UNL     1      -9.795  -9.583  19.402  0.00  0.00    +0.000 HD
BRANCH  26  29
ATOM     29  C   UNL     1      -8.490 -11.080  18.533  0.00  0.00    +0.000 C 
ATOM     30  H   UNL     1      -7.432 -11.174  18.253  0.00  0.00    +0.000 HD
ATOM     31  H   UNL     1      -8.642 -11.753  19.387  0.00  0.00    +0.000 HD
BRANCH  29  32
ATOM     32  C   UNL     1      -9.377 -11.547  17.375  0.00  0.00    +0.000 C 
ATOM     33  H   UNL     1      -9.351 -12.643  17.342  0.00  0.00    +0.000 HD
ATOM     34  H   UNL     1     -10.412 -11.245  17.569  0.00  0.00    +0.000 HD
BRANCH  32  35
ATOM     35  N   UNL     1      -8.912 -11.009  16.100  0.00  0.00    +0.000 NA
ATOM     36  H   UNL     1      -9.465 -10.201  15.820  0.00  0.00    +0.000 HD
BRANCH  35  37
ATOM     37  C   UNL     1      -8.995 -12.002  15.030  0.00  0.00    +0.000 C 
ATOM     38  H   UNL     1     -10.036 -12.307  14.878  0.00  0.00    +0.000 HD
ATOM     39  H   UNL     1      -8.617 -11.579  14.092  0.00  0.00    +0.000 HD
BRANCH  37  40
ATOM     40  C   UNL     1      -8.150 -13.217  15.419  0.00  0.00    +0.000 C 
ATOM     41  H   UNL     1      -7.176 -13.171  14.916  0.00  0.00    +0.000 HD
ATOM     42  H   UNL     1      -7.955 -13.201  16.500  0.00  0.00    +0.000 HD
BRANCH  40  43
ATOM     43  C   UNL     1      -8.864 -14.510  15.038  0.00  0.00    +0.000 C 
ATOM     44  H   UNL     1      -9.870 -14.291  14.665  0.00  0.00    +0.000 HD
ATOM     45  H   UNL     1      -8.314 -15.019  14.239  0.00  0.00    +0.000 HD
BRANCH  43  46
ATOM     46  N   UNL     1      -8.956 -15.399  16.190  0.00  0.00    +0.000 NA
ATOM     47  H   UNL     1      -8.136 -15.271  16.782  0.00  0.00    +0.000 HD
ATOM     48  H   UNL     1      -8.932 -16.369  15.877  0.00  0.00    +0.000 HD
ENDBRANCH  43  46
ENDBRANCH  40  43
ENDBRANCH  37  40
ENDBRANCH  35  37
ENDBRANCH  32  35
ENDBRANCH  29  32
ENDBRANCH  26  29
ENDBRANCH   1  26
TORSDOF 10
ENDMDL
MODEL 4
REMARK VINA RESULT:    -8.922      3.394      5.781
REMARK INTER + INTRA:         -15.734
REMARK INTER:                 -14.550
REMARK INTRA:                  -1.184
REMARK UNBOUND:                -1.858
REMARK  Name = 
REMARK  10 active torsions:
REMARK  status: ('A' for Active; 'I' for Inactive)
REMARK    1  A    between atoms: N_1  and  C_2
REMARK    2  A    between atoms: C_2  and  C_3
REMARK    3  A    between atoms: C_3  and  C_4
REMARK    4  A    between atoms: C_4  and  N_5
REMARK    5  A    between atoms: N_5  and  C_6
REMARK    6  A    between atoms: C_6  and  C_7
REMARK    7  A    between atoms: C_7  and  C_8
REMARK    8  A    between atoms: C_8  and  N_9
REMARK    9  A    between atoms: N_9  and  C_10
REMARK   10  A    between atoms: C_11  and  C_12
REMARK                            x       y       z     vdW  Elec       q    Type
REMARK                         _______ _______ _______ _____ _____    ______ ____
ROOT
ATOM      1  N   UNL     1     -10.002  -7.819  16.763  0.00  0.00    +0.000 N 
ATOM      2  H   UNL     1     -10.377  -8.664  16.316  0.00  0.00    +0.000 HD
ENDROOT
BRANCH   1   3
ATOM      3  C   UNL     1      -9.507  -8.215  18.008  0.00  0.00    +0.000 C 
ATOM      4  C   UNL     1      -9.043  -9.387  18.465  0.00  0.00    +0.000 C 
ATOM      5  C   UNL     1      -8.695  -9.207  19.895  0.00  0.00    +0.000 C 
ATOM      6  O   UNL     1      -8.261 -10.052  20.658  0.00  0.00    +0.000 OA
ATOM      7  N   UNL     1      -8.943  -7.916  20.209  0.00  0.00    +0.000 N 
ATOM      8  C   UNL     1      -9.396  -7.243  19.135  0.00  0.00    +0.000 C 
ATOM      9  O   UNL     1      -9.659  -6.058  19.051  0.00  0.00    +0.000 OA
ATOM     10  H   UNL     1      -8.764  -7.507  21.109  0.00  0.00    +0.000 HD
BRANCH   4  11
ATOM     11  C   UNL     1      -8.829 -10.559  17.709  0.00  0.00    +0.000 A 
ATOM     12  C   UNL     1      -8.682 -10.805  16.359  0.00  0.00    +0.000 A 
ATOM     13  C   UNL     1      -8.695 -12.212  16.161  0.00  0.00    +0.000 A 
ATOM     14  C   UNL     1      -8.670 -13.034  15.020  0.00  0.00    +0.000 A 
ATOM     15  C   UNL     1      -8.742 -14.423  15.180  0.00  0.00    +0.000 A 
ATOM     16  C   UNL     1      -8.821 -14.990  16.450  0.00  0.00    +0.000 A 
ATOM     17  C   UNL     1      -8.841 -14.191  17.599  0.00  0.00    +0.000 A 
ATOM     18  C   UNL     1      -8.785 -12.804  17.417  0.00  0.00    +0.000 A 
ATOM     19  N   UNL     1      -8.827 -11.784  18.339  0.00  0.00    +0.000 N 
ATOM     20  H   UNL     1      -8.647 -10.051  15.581  0.00  0.00    +0.000 HD
ATOM     21  H   UNL     1      -8.623 -12.597  14.029  0.00  0.00    +0.000 HD
ATOM     22  H   UNL     1      -8.740 -15.063  14.300  0.00  0.00    +0.000 HD
ATOM     23  H   UNL     1      -8.878 -16.072  16.552  0.00  0.00    +0.000 HD
ATOM     24  H   UNL     1      -8.916 -14.635  18.586  0.00  0.00    +0.000 HD
ATOM     25  H   UNL     1      -8.926 -11.907  19.340  0.00  0.00    +0.000 HD
ENDBRANCH   4  11
ENDBRANCH   1   3
BRANCH   1  26
ATOM     26  C   UNL     1      -9.036  -7.203  15.828  0.00  0.00    +0.000 C 
ATOM     27  H   UNL     1      -8.068  -7.112  16.330  0.00  0.00    +0.000 HD
ATOM     28  H   UNL     1      -8.892  -7.864  14.966  0.00  0.00    +0.000 HD
BRANCH  26  29
ATOM     29  C   UNL     1      -9.519  -5.828  15.367  0.00  0.00    +0.000 C 
ATOM     30  H   UNL     1      -8.833  -5.048  15.726  0.00  0.00    +0.000 HD
ATOM     31  H   UNL     1      -9.489  -5.782  14.271  0.00  0.00    +0.000 HD
BRANCH  29  32
ATOM     32  C   UNL     1     -10.945  -5.518  15.833  0.00  0.00    +0.000 C 
ATOM     33  H   UNL     1     -11.435  -6.465  16.093  0.00  0.00    +0.000 HD
ATOM     34  H   UNL     1     -10.903  -4.905  16.740  0.00  0.00    +0.000 HD
BRANCH  32  35
ATOM     35  N   UNL     1     -11.710  -4.843  14.788  0.00  0.00    +0.000 NA
ATOM     36  H   UNL     1     -11.354  -5.079  13.863  0.00  0.00    +0.000 HD
BRANCH  35  37
ATOM     37  C   UNL     1     -11.659  -3.389  14.932  0.00  0.00    +0.000 C 
ATOM     38  H   UNL     1     -12.489  -3.043  15.558  0.00  0.00    +0.000 HD
ATOM     39  H   UNL     1     -10.719  -3.090  15.407  0.00  0.00    +0.000 HD
BRANCH  37  40
ATOM     40  C   UNL     1     -11.756  -2.754  13.543  0.00  0.00    +0.000 C 
ATOM     41  H   UNL     1     -12.733  -2.978  13.096  0.00  0.00    +0.000 HD
ATOM     42  H   UNL     1     -11.685  -1.661  13.631  0.00  0.00    +0.000 HD
BRANCH  40  43
ATOM     43  C   UNL     1     -10.645  -3.276  12.636  0.00  0.00    +0.000 C 
ATOM     44  H   UNL     1     -10.351  -2.505  11.917  0.00  0.00    +0.000 HD
ATOM     45  H   UNL     1      -9.764  -3.530  13.234  0.00  0.00    +0.000 HD
BRANCH  43  46
ATOM     46  N   UNL     1     -11.091  -4.465  11.920  0.00  0.00    +0.000 NA
ATOM     47  H   UNL     1     -10.377  -5.189  11.989  0.00  0.00    +0.000 HD
ATOM     48  H   UNL     1     -11.184  -4.251  10.927  0.00  0.00    +0.000 HD
ENDBRANCH  43  46
ENDBRANCH  40  43
ENDBRANCH  37  40
ENDBRANCH  35  37
ENDBRANCH  32  35
ENDBRANCH  29  32
ENDBRANCH  26  29
ENDBRANCH   1  26
TORSDOF 10
ENDMDL
MODEL 5
REMARK VINA RESULT:    -8.913      1.586      1.815
REMARK INTER + INTRA:         -15.721
REMARK INTER:                 -14.253
REMARK INTRA:                  -1.468
REMARK UNBOUND:                -1.858
REMARK  Name = 
REMARK  10 active torsions:
REMARK  status: ('A' for Active; 'I' for Inactive)
REMARK    1  A    between atoms: N_1  and  C_2
REMARK    2  A    between atoms: C_2  and  C_3
REMARK    3  A    between atoms: C_3  and  C_4
REMARK    4  A    between atoms: C_4  and  N_5
REMARK    5  A    between atoms: N_5  and  C_6
REMARK    6  A    between atoms: C_6  and  C_7
REMARK    7  A    between atoms: C_7  and  C_8
REMARK    8  A    between atoms: C_8  and  N_9
REMARK    9  A    between atoms: N_9  and  C_10
REMARK   10  A    between atoms: C_11  and  C_12
REMARK                            x       y       z     vdW  Elec       q    Type
REMARK                         _______ _______ _______ _____ _____    ______ ____
ROOT
ATOM      1  N   UNL     1      -9.605  -6.794  19.490  0.00  0.00    +0.000 N 
ATOM      2  H   UNL     1     -10.020  -5.976  19.951  0.00  0.00    +0.000 HD
ENDROOT
BRANCH   1   3
ATOM      3  C   UNL     1      -9.558  -6.500  18.126  0.00  0.00    +0.000 C 
ATOM      4  C   UNL     1      -9.377  -7.266  17.041  0.00  0.00    +0.000 C 
ATOM      5  C   UNL     1      -9.384  -6.378  15.855  0.00  0.00    +0.000 C 
ATOM      6  O   UNL     1      -9.229  -6.704  14.691  0.00  0.00    +0.000 OA
ATOM      7  N   UNL     1      -9.602  -5.119  16.297  0.00  0.00    +0.000 N 
ATOM      8  C   UNL     1      -9.753  -5.103  17.634  0.00  0.00    +0.000 C 
ATOM      9  O   UNL     1     -10.018  -4.153  18.345  0.00  0.00    +0.000 OA
ATOM     10  H   UNL     1      -9.689  -4.316  15.699  0.00  0.00    +0.000 HD
BRANCH   4  11
ATOM     11  C   UNL     1      -9.293  -8.674  17.012  0.00  0.00    +0.000 A 
ATOM     12  C   UNL     1      -9.178  -9.639  17.992  0.00  0.00    +0.000 A 
ATOM     13  C   UNL     1      -8.929 -10.887  17.358  0.00  0.00    +0.000 A 
ATOM     14  C   UNL     1      -8.646 -12.180  17.833  0.00  0.00    +0.000 A 
ATOM     15  C   UNL     1      -8.402 -13.206  16.912  0.00  0.00    +0.000 A 
ATOM     16  C   UNL     1      -8.451 -12.958  15.541  0.00  0.00    +0.000 A 
ATOM     17  C   UNL     1      -8.736 -11.680  15.047  0.00  0.00    +0.000 A 
ATOM     18  C   UNL     1      -8.962 -10.665  15.984  0.00  0.00    +0.000 A 
ATOM     19  N   UNL     1      -9.220  -9.326  15.801  0.00  0.00    +0.000 N 
ATOM     20  H   UNL     1      -9.194  -9.458  19.060  0.00  0.00    +0.000 HD
ATOM     21  H   UNL     1      -8.593 -12.375  18.899  0.00  0.00    +0.000 HD
ATOM     22  H   UNL     1      -8.166 -14.204  17.274  0.00  0.00    +0.000 HD
ATOM     23  H   UNL     1      -8.255 -13.769  14.843  0.00  0.00    +0.000 HD
ATOM     24  H   UNL     1      -8.761 -11.488  13.980  0.00  0.00    +0.000 HD
ATOM     25  H   UNL     1      -9.270  -8.861  14.902  0.00  0.00    +0.000 HD
ENDBRANCH   4  11
ENDBRANCH   1   3
BRANCH   1  26
ATOM     26  C   UNL     1      -8.316  -7.082  20.155  0.00  0.00    +0.000 C 
ATOM     27  H   UNL     1      -8.425  -6.903  21.230  0.00  0.00    +0.000 HD
ATOM     28  H   UNL     1      -8.070  -8.142  20.028  0.00  0.00    +0.000 HD
BRANCH  26  29
ATOM     29  C   UNL     1      -7.198  -6.205  19.590  0.00  0.00    +0.000 C 
ATOM     30  H   UNL     1      -6.260  -6.774  19.543  0.00  0.00    +0.000 HD
ATOM     31  H   UNL     1      -7.442  -5.930  18.555  0.00  0.00    +0.000 HD
BRANCH  29  32
ATOM     32  C   UNL     1      -6.988  -4.923  20.402  0.00  0.00    +0.000 C 
ATOM     33  H   UNL     1      -6.344  -5.161  21.258  0.00  0.00    +0.000 HD
ATOM     34  H   UNL     1      -6.462  -4.187  19.785  0.00  0.00    +0.000 HD
BRANCH  32  35
ATOM     35  N   UNL     1      -8.258  -4.384  20.880  0.00  0.00    +0.000 NA
ATOM     36  H   UNL     1      -8.947  -4.352  20.132  0.00  0.00    +0.000 HD
BRANCH  35  37
ATOM     37  C   UNL     1      -8.106  -3.029  21.409  0.00  0.00    +0.000 C 
ATOM     38  H   UNL     1      -7.671  -2.373  20.648  0.00  0.00    +0.000 HD
ATOM     39  H   UNL     1      -9.083  -2.625  21.697  0.00  0.00    +0.000 HD
BRANCH  37  40
ATOM     40  C   UNL     1      -7.193  -3.079  22.636  0.00  0.00    +0.000 C 
ATOM     41  H   UNL     1      -6.352  -3.758  22.448  0.00  0.00    +0.000 HD
ATOM     42  H   UNL     1      -6.766  -2.083  22.820  0.00  0.00    +0.000 HD
BRANCH  40  43
ATOM     43  C   UNL     1      -7.968  -3.549  23.863  0.00  0.00    +0.000 C 
ATOM     44  H   UNL     1      -7.805  -4.620  24.025  0.00  0.00    +0.000 HD
ATOM     45  H   UNL     1      -7.616  -3.017  24.753  0.00  0.00    +0.000 HD
BRANCH  43  46
ATOM     46  N   UNL     1      -9.393  -3.294  23.692  0.00  0.00    +0.000 NA
ATOM     47  H   UNL     1      -9.770  -2.893  24.549  0.00  0.00    +0.000 HD
ATOM     48  H   UNL     1      -9.884  -4.177  23.550  0.00  0.00    +0.000 HD
ENDBRANCH  43  46
ENDBRANCH  40  43
ENDBRANCH  37  40
ENDBRANCH  35  37
ENDBRANCH  32  35
ENDBRANCH  29  32
ENDBRANCH  26  29
ENDBRANCH   1  26
TORSDOF 10
ENDMDL
MODEL 6
REMARK VINA RESULT:    -8.455      3.722      6.460
REMARK INTER + INTRA:         -15.009
REMARK INTER:                 -13.943
REMARK INTRA:                  -1.066
REMARK UNBOUND:                -1.858
REMARK  Name = 
REMARK  10 active torsions:
REMARK  status: ('A' for Active; 'I' for Inactive)
REMARK    1  A    between atoms: N_1  and  C_2
REMARK    2  A    between atoms: C_2  and  C_3
REMARK    3  A    between atoms: C_3  and  C_4
REMARK    4  A    between atoms: C_4  and  N_5
REMARK    5  A    between atoms: N_5  and  C_6
REMARK    6  A    between atoms: C_6  and  C_7
REMARK    7  A    between atoms: C_7  and  C_8
REMARK    8  A    between atoms: C_8  and  N_9
REMARK    9  A    between atoms: N_9  and  C_10
REMARK   10  A    between atoms: C_11  and  C_12
REMARK                            x       y       z     vdW  Elec       q    Type
REMARK                         _______ _______ _______ _____ _____    ______ ____
ROOT
ATOM      1  N   UNL     1     -10.416  -6.469  15.833  0.00  0.00    +0.000 N 
ATOM      2  H   UNL     1     -10.617  -7.398  15.444  0.00  0.00    +0.000 HD
ENDROOT
BRANCH   1   3
ATOM      3  C   UNL     1     -10.034  -6.669  17.162  0.00  0.00    +0.000 C 
ATOM      4  C   UNL     1      -9.550  -7.736  17.812  0.00  0.00    +0.000 C 
ATOM      5  C   UNL     1      -9.370  -7.355  19.233  0.00  0.00    +0.000 C 
ATOM      6  O   UNL     1      -8.967  -8.063  20.139  0.00  0.00    +0.000 OA
ATOM      7  N   UNL     1      -9.730  -6.057  19.350  0.00  0.00    +0.000 N 
ATOM      8  C   UNL     1     -10.106  -5.559  18.157  0.00  0.00    +0.000 C 
ATOM      9  O   UNL     1     -10.432  -4.417  17.894  0.00  0.00    +0.000 OA
ATOM     10  H   UNL     1      -9.674  -5.528  20.202  0.00  0.00    +0.000 HD
BRANCH   4  11
ATOM     11  C   UNL     1      -9.183  -8.973  17.241  0.00  0.00    +0.000 A 
ATOM     12  C   UNL     1      -9.072  -9.424  15.941  0.00  0.00    +0.000 A 
ATOM     13  C   UNL     1      -8.858 -10.828  15.976  0.00  0.00    +0.000 A 
ATOM     14  C   UNL     1      -8.758 -11.822  14.986  0.00  0.00    +0.000 A 
ATOM     15  C   UNL     1      -8.583 -13.155  15.374  0.00  0.00    +0.000 A 
ATOM     16  C   UNL     1      -8.494 -13.498  16.722  0.00  0.00    +0.000 A 
ATOM     17  C   UNL     1      -8.584 -12.525  17.723  0.00  0.00    +0.000 A 
ATOM     18  C   UNL     1      -8.775 -11.199  17.315  0.00  0.00    +0.000 A 
ATOM     19  N   UNL     1      -8.938 -10.054  18.059  0.00  0.00    +0.000 N 
ATOM     20  H   UNL     1      -9.210  -8.821  15.051  0.00  0.00    +0.000 HD
ATOM     21  H   UNL     1      -8.841 -11.562  13.936  0.00  0.00    +0.000 HD
ATOM     22  H   UNL     1      -8.523 -13.930  14.613  0.00  0.00    +0.000 HD
ATOM     23  H   UNL     1      -8.361 -14.541  17.002  0.00  0.00    +0.000 HD
ATOM     24  H   UNL     1      -8.527 -12.796  18.772  0.00  0.00    +0.000 HD
ATOM     25  H   UNL     1      -8.958 -10.015  19.071  0.00  0.00    +0.000 HD
ENDBRANCH   4  11
ENDBRANCH   1   3
BRANCH   1  26
ATOM     26  C   UNL     1      -9.431  -5.810  14.949  0.00  0.00    +0.000 C 
ATOM     27  H   UNL     1      -8.516  -5.621  15.519  0.00  0.00    +0.000 HD
ATOM     28  H   UNL     1      -9.167  -6.489  14.130  0.00  0.00    +0.000 HD
BRANCH  26  29
ATOM     29  C   UNL     1      -9.983  -4.497  14.393  0.00  0.00    +0.000 C 
ATOM     30  H   UNL     1      -9.520  -3.646  14.909  0.00  0.00    +0.000 HD
ATOM     31  H   UNL     1      -9.702  -4.405  13.336  0.00  0.00    +0.000 HD
BRANCH  29  32
ATOM     32  C   UNL     1     -11.508  -4.405  14.506  0.00  0.00    +0.000 C 
ATOM     33  H   UNL     1     -11.870  -5.305  15.019  0.00  0.00    +0.000 HD
ATOM     34  H   UNL     1     -11.773  -3.540  15.124  0.00  0.00    +0.000 HD
BRANCH  32  35
ATOM     35  N   UNL     1     -12.133  -4.310  13.189  0.00  0.00    +0.000 NA
ATOM     36  H   UNL     1     -12.449  -5.223  12.867  0.00  0.00    +0.000 HD
BRANCH  35  37
ATOM     37  C   UNL     1     -11.210  -3.776  12.188  0.00  0.00    +0.000 C 
ATOM     38  H   UNL     1     -10.562  -3.017  12.640  0.00  0.00    +0.000 HD
ATOM     39  H   UNL     1     -10.579  -4.579  11.791  0.00  0.00    +0.000 HD
BRANCH  37  40
ATOM     40  C   UNL     1     -12.023  -3.155  11.051  0.00  0.00    +0.000 C 
ATOM     41  H   UNL     1     -13.065  -3.020  11.366  0.00  0.00    +0.000 HD
ATOM     42  H   UNL     1     -11.627  -2.158  10.814  0.00  0.00    +0.000 HD
BRANCH  40  43
ATOM     43  C   UNL     1     -11.974  -4.043   9.810  0.00  0.00    +0.000 C 
ATOM     44  H   UNL     1     -12.990  -4.297   9.488  0.00  0.00    +0.000 HD
ATOM     45  H   UNL     1     -11.485  -3.509   8.988  0.00  0.00    +0.000 HD
BRANCH  43  46
ATOM     46  N   UNL     1     -11.232  -5.266  10.090  0.00  0.00    +0.000 NA
ATOM     47  H   UNL     1     -10.889  -5.242  11.049  0.00  0.00    +0.000 HD
ATOM     48  H   UNL     1     -10.405  -5.308   9.494  0.00  0.00    +0.000 HD
ENDBRANCH  43  46
ENDBRANCH  40  43
ENDBRANCH  37  40
ENDBRANCH  35  37
ENDBRANCH  32  35
ENDBRANCH  29  32
ENDBRANCH  26  29
ENDBRANCH   1  26
TORSDOF 10
ENDMDL
MODEL 7
REMARK VINA RESULT:    -8.262      3.474      6.258
REMARK INTER + INTRA:         -14.708
REMARK INTER:                 -13.923
REMARK INTRA:                  -0.785
REMARK UNBOUND:                -1.858
REMARK  Name = 
REMARK  10 active torsions:
REMARK  status: ('A' for Active; 'I' for Inactive)
REMARK    1  A    between atoms: N_1  and  C_2
REMARK    2  A    between atoms: C_2  and  C_3
REMARK    3  A    between atoms: C_3  and  C_4
REMARK    4  A    between atoms: C_4  and  N_5
REMARK    5  A    between atoms: N_5  and  C_6
REMARK    6  A    between atoms: C_6  and  C_7
REMARK    7  A    between atoms: C_7  and  C_8
REMARK    8  A    between atoms: C_8  and  N_9
REMARK    9  A    between atoms: N_9  and  C_10
REMARK   10  A    between atoms: C_11  and  C_12
REMARK                            x       y       z     vdW  Elec       q    Type
REMARK                         _______ _______ _______ _____ _____    ______ ____
ROOT
ATOM      1  N   UNL     1     -11.268  -6.141  17.648  0.00  0.00    +0.000 N 
ATOM      2  H   UNL     1     -11.685  -7.037  17.926  0.00  0.00    +0.000 HD
ENDROOT
BRANCH   1   3
ATOM      3  C   UNL     1     -10.045  -6.048  18.315  0.00  0.00    +0.000 C 
ATOM      4  C   UNL     1      -9.121  -6.963  18.641  0.00  0.00    +0.000 C 
ATOM      5  C   UNL     1      -8.044  -6.271  19.388  0.00  0.00    +0.000 C 
ATOM      6  O   UNL     1      -7.042  -6.772  19.866  0.00  0.00    +0.000 OA
ATOM      7  N   UNL     1      -8.371  -4.960  19.442  0.00  0.00    +0.000 N 
ATOM      8  C   UNL     1      -9.531  -4.732  18.797  0.00  0.00    +0.000 C 
ATOM      9  O   UNL     1     -10.081  -3.665  18.605  0.00  0.00    +0.000 OA
ATOM     10  H   UNL     1      -7.798  -4.250  19.862  0.00  0.00    +0.000 HD
BRANCH   4  11
ATOM     11  C   UNL     1      -9.115  -8.322  18.263  0.00  0.00    +0.000 A 
ATOM     12  C   UNL     1      -8.946  -9.502  18.960  0.00  0.00    +0.000 A 
ATOM     13  C   UNL     1      -8.835 -10.561  18.018  0.00  0.00    +0.000 A 
ATOM     14  C   UNL     1      -8.572 -11.938  18.130  0.00  0.00    +0.000 A 
ATOM     15  C   UNL     1      -8.484 -12.712  16.967  0.00  0.00    +0.000 A 
ATOM     16  C   UNL     1      -8.668 -12.133  15.713  0.00  0.00    +0.000 A 
ATOM     17  C   UNL     1      -8.937 -10.767  15.579  0.00  0.00    +0.000 A 
ATOM     18  C   UNL     1      -9.005 -10.007  16.753  0.00  0.00    +0.000 A 
ATOM     19  N   UNL     1      -9.210  -8.659  16.930  0.00  0.00    +0.000 N 
ATOM     20  H   UNL     1      -8.836  -9.588  20.034  0.00  0.00    +0.000 HD
ATOM     21  H   UNL     1      -8.413 -12.390  19.104  0.00  0.00    +0.000 HD
ATOM     22  H   UNL     1      -8.263 -13.773  17.047  0.00  0.00    +0.000 HD
ATOM     23  H   UNL     1      -8.594 -12.752  14.821  0.00  0.00    +0.000 HD
ATOM     24  H   UNL     1      -9.068 -10.317  14.600  0.00  0.00    +0.000 HD
ATOM     25  H   UNL     1      -9.332  -7.986  16.183  0.00  0.00    +0.000 HD
ENDBRANCH   4  11
ENDBRANCH   1   3
BRANCH   1  26
ATOM     26  C   UNL     1     -11.226  -6.101  16.170  0.00  0.00    +0.000 C 
ATOM     27  H   UNL     1     -10.218  -6.371  15.839  0.00  0.00    +0.000 HD
ATOM     28  H   UNL     1     -11.912  -6.853  15.766  0.00  0.00    +0.000 HD
BRANCH  26  29
ATOM     29  C   UNL     1     -11.594  -4.712  15.648  0.00  0.00    +0.000 C 
ATOM     30  H   UNL     1     -12.651  -4.689  15.350  0.00  0.00    +0.000 HD
ATOM     31  H   UNL     1     -11.488  -3.980  16.459  0.00  0.00    +0.000 HD
BRANCH  29  32
ATOM     32  C   UNL     1     -10.714  -4.273  14.473  0.00  0.00    +0.000 C 
ATOM     33  H   UNL     1     -10.462  -3.214  14.608  0.00  0.00    +0.000 HD
ATOM     34  H   UNL     1      -9.778  -4.842  14.491  0.00  0.00    +0.000 HD
BRANCH  32  35
ATOM     35  N   UNL     1     -11.403  -4.452  13.197  0.00  0.00    +0.000 NA
ATOM     36  H   UNL     1     -10.923  -5.136  12.615  0.00  0.00    +0.000 HD
BRANCH  35  37
ATOM     37  C   UNL     1     -11.486  -3.201  12.446  0.00  0.00    +0.000 C 
ATOM     38  H   UNL     1     -11.704  -2.368  13.123  0.00  0.00    +0.000 HD
ATOM     39  H   UNL     1     -10.534  -2.998  11.944  0.00  0.00    +0.000 HD
BRANCH  37  40
ATOM     40  C   UNL     1     -12.598  -3.326  11.402  0.00  0.00    +0.000 C 
ATOM     41  H   UNL     1     -13.369  -4.021  11.759  0.00  0.00    +0.000 HD
ATOM     42  H   UNL     1     -13.084  -2.351  11.260  0.00  0.00    +0.000 HD
BRANCH  40  43
ATOM     43  C   UNL     1     -12.033  -3.825  10.075  0.00  0.00    +0.000 C 
ATOM     44  H   UNL     1     -12.845  -4.005   9.362  0.00  0.00    +0.000 HD
ATOM     45  H   UNL     1     -11.370  -3.068   9.643  0.00  0.00    +0.000 HD
BRANCH  43  46
ATOM     46  N   UNL     1     -11.280  -5.057  10.274  0.00  0.00    +0.000 NA
ATOM     47  H   UNL     1     -11.899  -5.775  10.648  0.00  0.00    +0.000 HD
ATOM     48  H   UNL     1     -10.559  -4.908  10.980  0.00  0.00    +0.000 HD
ENDBRANCH  43  46
ENDBRANCH  40  43
ENDBRANCH  37  40
ENDBRANCH  35  37
ENDBRANCH  32  35
ENDBRANCH  29  32
ENDBRANCH  26  29
ENDBRANCH   1  26
TORSDOF 10
ENDMDL
MODEL 8
REMARK VINA RESULT:    -8.224      2.904      4.998
REMARK INTER + INTRA:         -14.649
REMARK INTER:                 -13.265
REMARK INTRA:                  -1.384
REMARK UNBOUND:                -1.858
REMARK  Name = 
REMARK  10 active torsions:
REMARK  status: ('A' for Active; 'I' for Inactive)
REMARK    1  A    between atoms: N_1  and  C_2
REMARK    2  A    between atoms: C_2  and  C_3
REMARK    3  A    between atoms: C_3  and  C_4
REMARK    4  A    between atoms: C_4  and  N_5
REMARK    5  A    between atoms: N_5  and  C_6
REMARK    6  A    between atoms: C_6  and  C_7
REMARK    7  A    between atoms: C_7  and  C_8
REMARK    8  A    between atoms: C_8  and  N_9
REMARK    9  A    between atoms: N_9  and  C_10
REMARK   10  A    between atoms: C_11  and  C_12
REMARK                            x       y       z     vdW  Elec       q    Type
REMARK                         _______ _______ _______ _____ _____    ______ ____
ROOT
ATOM      1  N   UNL     1     -11.561  -6.193  16.713  0.00  0.00    +0.000 N 
ATOM      2  H   UNL     1     -11.525  -7.139  16.315  0.00  0.00    +0.000 HD
ENDROOT
BRANCH   1   3
ATOM      3  C   UNL     1     -10.559  -6.135  17.685  0.00  0.00    +0.000 C 
ATOM      4  C   UNL     1      -9.597  -6.995  18.045  0.00  0.00    +0.000 C 
ATOM      5  C   UNL     1      -8.854  -6.394  19.178  0.00  0.00    +0.000 C 
ATOM      6  O   UNL     1      -7.921  -6.885  19.789  0.00  0.00    +0.000 OA
ATOM      7  N   UNL     1      -9.398  -5.180  19.416  0.00  0.00    +0.000 N 
ATOM      8  C   UNL     1     -10.398  -4.928  18.549  0.00  0.00    +0.000 C 
ATOM      9  O   UNL     1     -11.058  -3.912  18.445  0.00  0.00    +0.000 OA
ATOM     10  H   UNL     1      -9.065  -4.536  20.111  0.00  0.00    +0.000 HD
BRANCH   4  11
ATOM     11  C   UNL     1      -9.277  -8.212  17.407  0.00  0.00    +0.000 A 
ATOM     12  C   UNL     1      -9.245  -8.613  16.086  0.00  0.00    +0.000 A 
ATOM     13  C   UNL     1      -9.045 -10.020  16.056  0.00  0.00    +0.000 A 
ATOM     14  C   UNL     1      -9.013 -10.976  15.024  0.00  0.00    +0.000 A 
ATOM     15  C   UNL     1      -8.832 -12.325  15.350  0.00  0.00    +0.000 A 
ATOM     16  C   UNL     1      -8.670 -12.720  16.677  0.00  0.00    +0.000 A 
ATOM     17  C   UNL     1      -8.693 -11.786  17.718  0.00  0.00    +0.000 A 
ATOM     18  C   UNL     1      -8.891 -10.444  17.372  0.00  0.00    +0.000 A 
ATOM     19  N   UNL     1      -8.998  -9.327  18.168  0.00  0.00    +0.000 N 
ATOM     20  H   UNL     1      -9.426  -7.975  15.230  0.00  0.00    +0.000 HD
ATOM     21  H   UNL     1      -9.152 -10.674  13.991  0.00  0.00    +0.000 HD
ATOM     22  H   UNL     1      -8.824 -13.070  14.558  0.00  0.00    +0.000 HD
ATOM     23  H   UNL     1      -8.533 -13.774  16.908  0.00  0.00    +0.000 HD
ATOM     24  H   UNL     1      -8.579 -12.098  18.750  0.00  0.00    +0.000 HD
ATOM     25  H   UNL     1      -8.960  -9.327  19.180  0.00  0.00    +0.000 HD
ENDBRANCH   4  11
ENDBRANCH   1   3
BRANCH   1  26
ATOM     26  C   UNL     1     -11.464  -5.228  15.598  0.00  0.00    +0.000 C 
ATOM     27  H   UNL     1     -12.207  -5.492  14.838  0.00  0.00    +0.000 HD
ATOM     28  H   UNL     1     -11.717  -4.226  15.961  0.00  0.00    +0.000 HD
BRANCH  26  29
ATOM     29  C   UNL     1     -10.064  -5.233  14.985  0.00  0.00    +0.000 C 
ATOM     30  H   UNL     1      -9.326  -4.902  15.728  0.00  0.00    +0.000 HD
ATOM     31  H   UNL     1      -9.789  -6.262  14.719  0.00  0.00    +0.000 HD
BRANCH  29  32
ATOM     32  C   UNL     1      -9.967  -4.359  13.732  0.00  0.00    +0.000 C 
ATOM     33  H   UNL     1     -10.125  -4.997  12.853  0.00  0.00    +0.000 HD
ATOM     34  H   UNL     1     -10.769  -3.612  13.749  0.00  0.00    +0.000 HD
BRANCH  32  35
ATOM     35  N   UNL     1      -8.661  -3.712  13.635  0.00  0.00    +0.000 NA
ATOM     36  H   UNL     1      -8.149  -3.787  14.513  0.00  0.00    +0.000 HD
BRANCH  35  37
ATOM     37  C   UNL     1      -8.782  -2.292  13.306  0.00  0.00    +0.000 C 
ATOM     38  H   UNL     1      -7.879  -1.755  13.615  0.00  0.00    +0.000 HD
ATOM     39  H   UNL     1      -8.907  -2.165  12.225  0.00  0.00    +0.000 HD
BRANCH  37  40
ATOM     40  C   UNL     1     -10.001  -1.721  14.033  0.00  0.00    +0.000 C 
ATOM     41  H   UNL     1     -10.520  -1.004  13.385  0.00  0.00    +0.000 HD
ATOM     42  H   UNL     1     -10.712  -2.528  14.255  0.00  0.00    +0.000 HD
BRANCH  40  43
ATOM     43  C   UNL     1      -9.578  -1.029  15.326  0.00  0.00    +0.000 C 
ATOM     44  H   UNL     1      -8.576  -0.602  15.216  0.00  0.00    +0.000 HD
ATOM     45  H   UNL     1     -10.268  -0.210  15.555  0.00  0.00    +0.000 HD
BRANCH  43  46
ATOM     46  N   UNL     1      -9.583  -1.977  16.434  0.00  0.00    +0.000 NA
ATOM     47  H   UNL     1     -10.385  -1.791  17.034  0.00  0.00    +0.000 HD
ATOM     48  H   UNL     1      -8.755  -1.833  17.012  0.00  0.00    +0.000 HD
ENDBRANCH  43  46
ENDBRANCH  40  43
ENDBRANCH  37  40
ENDBRANCH  35  37
ENDBRANCH  32  35
ENDBRANCH  29  32
ENDBRANCH  26  29
ENDBRANCH   1  26
TORSDOF 10
ENDMDL
MODEL 9
REMARK VINA RESULT:    -7.948      2.838      5.370
REMARK INTER + INTRA:         -14.220
REMARK INTER:                 -13.069
REMARK INTRA:                  -1.151
REMARK UNBOUND:                -1.858
REMARK  Name = 
REMARK  10 active torsions:
REMARK  status: ('A' for Active; 'I' for Inactive)
REMARK    1  A    between atoms: N_1  and  C_2
REMARK    2  A    between atoms: C_2  and  C_3
REMARK    3  A    between atoms: C_3  and  C_4
REMARK    4  A    between atoms: C_4  and  N_5
REMARK    5  A    between atoms: N_5  and  C_6
REMARK    6  A    between atoms: C_6  and  C_7
REMARK    7  A    between atoms: C_7  and  C_8
REMARK    8  A    between atoms: C_8  and  N_9
REMARK    9  A    between atoms: N_9  and  C_10
REMARK   10  A    between atoms: C_11  and  C_12
REMARK                            x       y       z     vdW  Elec       q    Type
REMARK                         _______ _______ _______ _____ _____    ______ ____
ROOT
ATOM      1  N   UNL     1     -11.106  -5.739  18.330  0.00  0.00    +0.000 N 
ATOM      2  H   UNL     1     -11.455  -6.685  18.520  0.00  0.00    +0.000 HD
ENDROOT
BRANCH   1   3
ATOM      3  C   UNL     1      -9.770  -5.720  18.737  0.00  0.00    +0.000 C 
ATOM      4  C   UNL     1      -8.835  -6.677  18.815  0.00  0.00    +0.000 C 
ATOM      5  C   UNL     1      -7.603  -6.062  19.362  0.00  0.00    +0.000 C 
ATOM      6  O   UNL     1      -6.544  -6.618  19.597  0.00  0.00    +0.000 OA
ATOM      7  N   UNL     1      -7.861  -4.748  19.553  0.00  0.00    +0.000 N 
ATOM      8  C   UNL     1      -9.118  -4.450  19.173  0.00  0.00    +0.000 C 
ATOM      9  O   UNL     1      -9.654  -3.358  19.156  0.00  0.00    +0.000 OA
ATOM     10  H   UNL     1      -7.188  -4.081  19.885  0.00  0.00    +0.000 HD
BRANCH   4  11
ATOM     11  C   UNL     1      -8.959  -8.011  18.371  0.00  0.00    +0.000 A 
ATOM     12  C   UNL     1      -8.848  -9.236  18.999  0.00  0.00    +0.000 A 
ATOM     13  C   UNL     1      -8.872 -10.248  18.001  0.00  0.00    +0.000 A 
ATOM     14  C   UNL     1      -8.715 -11.645  18.029  0.00  0.00    +0.000 A 
ATOM     15  C   UNL     1      -8.753 -12.360  16.826  0.00  0.00    +0.000 A 
ATOM     16  C   UNL     1      -8.959 -11.702  15.615  0.00  0.00    +0.000 A 
ATOM     17  C   UNL     1      -9.124 -10.314  15.564  0.00  0.00    +0.000 A 
ATOM     18  C   UNL     1      -9.067  -9.615  16.777  0.00  0.00    +0.000 A 
ATOM     19  N   UNL     1      -9.153  -8.267  17.031  0.00  0.00    +0.000 N 
ATOM     20  H   UNL     1      -8.686  -9.388  20.059  0.00  0.00    +0.000 HD
ATOM     21  H   UNL     1      -8.540 -12.160  18.968  0.00  0.00    +0.000 HD
ATOM     22  H   UNL     1      -8.614 -13.438  16.841  0.00  0.00    +0.000 HD
ATOM     23  H   UNL     1      -8.983 -12.276  14.691  0.00  0.00    +0.000 HD
ATOM     24  H   UNL     1      -9.271  -9.803  14.619  0.00  0.00    +0.000 HD
ATOM     25  H   UNL     1      -9.262  -7.547  16.327  0.00  0.00    +0.000 HD
ENDBRANCH   4  11
ENDBRANCH   1   3
BRANCH   1  26
ATOM     26  C   UNL     1     -11.374  -5.435  16.908  0.00  0.00    +0.000 C 
ATOM     27  H   UNL     1     -10.436  -5.509  16.348  0.00  0.00    +0.000 HD
ATOM     28  H   UNL     1     -12.056  -6.188  16.497  0.00  0.00    +0.000 HD
BRANCH  26  29
ATOM     29  C   UNL     1     -11.970  -4.036  16.748  0.00  0.00    +0.000 C 
ATOM     30  H   UNL     1     -13.051  -4.063  16.941  0.00  0.00    +0.000 HD
ATOM     31  H   UNL     1     -11.539  -3.370  17.506  0.00  0.00    +0.000 HD
BRANCH  29  32
ATOM     32  C   UNL     1     -11.706  -3.440  15.362  0.00  0.00    +0.000 C 
ATOM     33  H   UNL     1     -12.643  -3.466  14.791  0.00  0.00    +0.000 HD
ATOM     34  H   UNL     1     -11.413  -2.390  15.471  0.00  0.00    +0.000 HD
BRANCH  32  35
ATOM     35  N   UNL     1     -10.678  -4.192  14.647  0.00  0.00    +0.000 NA
ATOM     36  H   UNL     1      -9.748  -3.956  14.989  0.00  0.00    +0.000 HD
BRANCH  35  37
ATOM     37  C   UNL     1     -10.709  -3.923  13.211  0.00  0.00    +0.000 C 
ATOM     38  H   UNL     1      -9.951  -4.524  12.697  0.00  0.00    +0.000 HD
ATOM     39  H   UNL     1     -11.692  -4.181  12.800  0.00  0.00    +0.000 HD
BRANCH  37  40
ATOM     40  C   UNL     1     -10.435  -2.435  12.982  0.00  0.00    +0.000 C 
ATOM     41  H   UNL     1     -10.984  -2.085  12.098  0.00  0.00    +0.000 HD
ATOM     42  H   UNL     1     -10.803  -1.855  13.839  0.00  0.00    +0.000 HD
BRANCH  40  43
ATOM     43  C   UNL     1      -8.942  -2.189  12.789  0.00  0.00    +0.000 C 
ATOM     44  H   UNL     1      -8.705  -2.117  11.722  0.00  0.00    +0.000 HD
ATOM     45  H   UNL     1      -8.655  -1.242  13.260  0.00  0.00    +0.000 HD
BRANCH  43  46
ATOM     46  N   UNL     1      -8.167  -3.269  13.387  0.00  0.00    +0.000 NA
ATOM     47  H   UNL     1      -8.367  -4.140  12.897  0.00  0.00    +0.000 HD
ATOM     48  H   UNL     1      -8.465  -3.411  14.352  0.00  0.00    +0.000 HD
ENDBRANCH  43  46
ENDBRANCH  40  43
ENDBRANCH  37  40
ENDBRANCH  35  37
ENDBRANCH  32  35
ENDBRANCH  29  32
ENDBRANCH  26  29
ENDBRANCH   1  26
TORSDOF 10
ENDMDL
