REMARK  Name = 
REMARK  8 active torsions:
REMARK  status: ('A' for Active; 'I' for Inactive)
REMARK    1  A    between atoms: N_1  and  C_2
REMARK    2  A    between atoms: C_2  and  C_3
REMARK    3  A    between atoms: C_2  and  C_26
REMARK    4  A    between atoms: C_3  and  O_4
REMARK    5  A    between atoms: O_4  and  C_5
REMARK    6  A    between atoms: C_9  and  C_10
REMARK    7  A    between atoms: C_13  and  C_14
REMARK    8  A    between atoms: C_26  and  C_27
REMARK                            x       y       z     vdW  Elec       q    Type
REMARK                         _______ _______ _______ _____ _____    ______ ____
ROOT
ATOM      1  C   UNL     1       0.699  -2.882  -0.598  0.00  0.00    +0.000 A 
ATOM      2  C   UNL     1       0.091  -4.091  -0.869  0.00  0.00    +0.000 A 
ATOM      3  N   UNL     1      -1.228  -4.229  -1.177  0.00  0.00    +0.000 NA
ATOM      4  C   UNL     1      -1.987  -3.097  -1.205  0.00  0.00    +0.000 A 
ATOM      5  C   UNL     1      -1.503  -1.823  -0.954  0.00  0.00    +0.000 A 
ATOM      6  C   UNL     1      -0.122  -1.759  -0.653  0.00  0.00    +0.000 A 
ATOM      7  H   UNL     1       0.664  -5.013  -0.842  0.00  0.00    +0.000 HD
ATOM      8  H   UNL     1      -3.031  -3.274  -1.449  0.00  0.00    +0.000 HD
ATOM      9  H   UNL     1       0.293  -0.779  -0.435  0.00  0.00    +0.000 HD
ENDROOT
BRANCH   5  10
ATOM     10  C   UNL     1      -2.289  -0.567  -0.885  0.00  0.00    +0.000 A 
ATOM     11  C   UNL     1      -3.603  -0.452  -0.406  0.00  0.00    +0.000 A 
ATOM     12  C   UNL     1      -3.940   0.793   0.176  0.00  0.00    +0.000 A 
ATOM     13  C   UNL     1      -5.072   1.499   0.715  0.00  0.00    +0.000 A 
ATOM     14  N   UNL     1      -4.660   2.524   1.484  0.00  0.00    +0.000 NA
ATOM     15  N   UNL     1      -3.428   2.754   1.038  0.00  0.00    +0.000 N 
ATOM     16  C   UNL     1      -2.964   1.791   0.192  0.00  0.00    +0.000 A 
ATOM     17  C   UNL     1      -1.828   1.717  -0.573  0.00  0.00    +0.000 A 
ATOM     18  N   UNL     1      -1.508   0.529  -1.105  0.00  0.00    +0.000 NA
ATOM     19  H   UNL     1      -4.260  -1.308  -0.307  0.00  0.00    +0.000 HD
ATOM     20  H   UNL     1      -2.950   3.590   1.338  0.00  0.00    +0.000 HD
ATOM     21  H   UNL     1      -1.134   2.532  -0.721  0.00  0.00    +0.000 HD
BRANCH  13  22
ATOM     22  C   UNL     1      -6.428   1.637   0.184  0.00  0.00    +0.000 A 
ATOM     23  C   UNL     1      -7.563   1.560   0.994  0.00  0.00    +0.000 A 
ATOM     24  C   UNL     1      -8.795   2.019   0.510  0.00  0.00    +0.000 A 
ATOM     25  C   UNL     1      -8.891   2.584  -0.765  0.00  0.00    +0.000 A 
ATOM     26  C   UNL     1      -7.756   2.701  -1.561  0.00  0.00    +0.000 A 
ATOM     27  C   UNL     1      -6.535   2.226  -1.091  0.00  0.00    +0.000 A 
ATOM     28  H   UNL     1      -7.486   1.219   2.024  0.00  0.00    +0.000 HD
ATOM     29  H   UNL     1      -9.676   1.985   1.146  0.00  0.00    +0.000 HD
ATOM     30  H   UNL     1      -9.842   2.967  -1.125  0.00  0.00    +0.000 HD
ATOM     31  H   UNL     1      -7.807   3.202  -2.524  0.00  0.00    +0.000 HD
ATOM     32  H   UNL     1      -5.639   2.410  -1.681  0.00  0.00    +0.000 HD
ENDBRANCH  13  22
ENDBRANCH   5  10
BRANCH   1  33
ATOM     33  O   UNL     1       2.033  -2.876  -0.279  0.00  0.00    +0.000 OA
BRANCH  33  34
ATOM     34  C   UNL     1       2.598  -1.571  -0.045  0.00  0.00    +0.000 C 
ATOM     35  H   UNL     1       2.107  -1.137   0.838  0.00  0.00    +0.000 HD
ATOM     36  H   UNL     1       2.422  -0.929  -0.919  0.00  0.00    +0.000 HD
BRANCH  34  37
ATOM     37  C   UNL     1       4.113  -1.616   0.232  0.00  0.00    +0.000 C 
ATOM     38  H   UNL     1       4.302  -2.297   1.075  0.00  0.00    +0.000 HD
BRANCH  37  39
ATOM     39  N   UNL     1       4.849  -2.153  -0.927  0.00  0.00    +0.000 NA
ATOM     40  H   UNL     1       5.809  -2.360  -0.646  0.00  0.00    +0.000 HD
ATOM     41  H   UNL     1       4.932  -1.429  -1.647  0.00  0.00    +0.000 HD
ENDBRANCH  37  39
BRANCH  37  42
ATOM     42  C   UNL     1       4.568  -0.175   0.598  0.00  0.00    +0.000 C 
ATOM     43  H   UNL     1       4.049   0.154   1.509  0.00  0.00    +0.000 HD
ATOM     44  H   UNL     1       4.232   0.510  -0.193  0.00  0.00    +0.000 HD
BRANCH  42  45
ATOM     45  C   UNL     1       6.049   0.024   0.815  0.00  0.00    +0.000 A 
ATOM     46  C   UNL     1       6.763   0.920   0.004  0.00  0.00    +0.000 A 
ATOM     47  C   UNL     1       8.132   1.114   0.196  0.00  0.00    +0.000 A 
ATOM     48  C   UNL     1       8.798   0.422   1.203  0.00  0.00    +0.000 A 
ATOM     49  C   UNL     1       8.094  -0.455   2.028  0.00  0.00    +0.000 A 
ATOM     50  C   UNL     1       6.725  -0.650   1.839  0.00  0.00    +0.000 A 
ATOM     51  H   UNL     1       6.259   1.476  -0.783  0.00  0.00    +0.000 HD
ATOM     52  H   UNL     1       8.676   1.806  -0.441  0.00  0.00    +0.000 HD
ATOM     53  H   UNL     1       9.865   0.569   1.350  0.00  0.00    +0.000 HD
ATOM     54  H   UNL     1       8.613  -0.987   2.821  0.00  0.00    +0.000 HD
ATOM     55  H   UNL     1       6.191  -1.329   2.500  0.00  0.00    +0.000 HD
ENDBRANCH  42  45
ENDBRANCH  37  42
ENDBRANCH  34  37
ENDBRANCH  33  34
ENDBRANCH   1  33
TORSDOF 8
