MODEL 1
REMARK VINA RESULT:   -11.680      0.000      0.000
REMARK INTER + INTRA:         -16.299
REMARK INTER:                 -15.777
REMARK INTRA:                  -0.522
REMARK UNBOUND:                -0.522
REMARK  Name = 
REMARK  7 active torsions:
REMARK  status: ('A' for Active; 'I' for Inactive)
REMARK    1  A    between atoms: C_1  and  N_2
REMARK    2  A    between atoms: C_12  and  C_13
REMARK    3  A    between atoms: C_13  and  C_14
REMARK    4  A    between atoms: C_14  and  C_15
REMARK    5  A    between atoms: C_15  and  N_16
REMARK    6  A    between atoms: N_16  and  C_17
REMARK    7  A    between atoms: C_20  and  O_21
REMARK                            x       y       z     vdW  Elec       q    Type
REMARK                         _______ _______ _______ _____ _____    ______ ____
ROOT
ATOM      1  N   UNL     1      -9.903   0.873  23.217  0.00  0.00    +0.000 N 
ATOM      2  C   UNL     1     -10.824   1.907  22.988  0.00  0.00    +0.000 A 
ATOM      3  C   UNL     1     -10.738   2.046  21.619  0.00  0.00    +0.000 A 
ATOM      4  C   UNL     1     -10.874   0.680  21.276  0.00  0.00    +0.000 A 
ATOM      5  C   UNL     1     -11.504   0.053  20.191  0.00  0.00    +0.000 A 
ATOM      6  C   UNL     1     -11.211  -1.262  19.913  0.00  0.00    +0.000 A 
ATOM      7  C   UNL     1     -10.135  -1.829  20.582  0.00  0.00    +0.000 A 
ATOM      8  C   UNL     1      -9.565  -2.955  20.004  0.00  0.00    +0.000 A 
ATOM      9  N   UNL     1     -10.070  -3.893  19.135  0.00  0.00    +0.000 N 
ATOM     10  C   UNL     1      -9.275  -5.017  19.128  0.00  0.00    +0.000 A 
ATOM     11  C   UNL     1      -9.582  -6.288  18.611  0.00  0.00    +0.000 A 
ATOM     12  C   UNL     1      -8.600  -7.276  18.781  0.00  0.00    +0.000 A 
ATOM     13  C   UNL     1      -7.373  -7.003  19.390  0.00  0.00    +0.000 A 
ATOM     14  C   UNL     1      -7.095  -5.711  19.872  0.00  0.00    +0.000 A 
ATOM     15  C   UNL     1      -8.077  -4.713  19.791  0.00  0.00    +0.000 A 
ATOM     16  C   UNL     1      -8.315  -3.414  20.274  0.00  0.00    +0.000 A 
ATOM     17  C   UNL     1      -7.613  -2.863  21.381  0.00  0.00    +0.000 A 
ATOM     18  C   UNL     1      -8.473  -2.115  22.250  0.00  0.00    +0.000 A 
ATOM     19  C   UNL     1      -9.539  -1.312  21.774  0.00  0.00    +0.000 A 
ATOM     20  C   UNL     1     -10.032  -0.040  22.175  0.00  0.00    +0.000 A 
ATOM     21  C   UNL     1      -8.353  -2.906  23.475  0.00  0.00    +0.000 C 
ATOM     22  O   UNL     1      -9.195  -3.310  24.272  0.00  0.00    +0.000 OA
ATOM     23  N   UNL     1      -7.097  -3.479  23.375  0.00  0.00    +0.000 N 
ATOM     24  C   UNL     1      -6.550  -3.444  22.123  0.00  0.00    +0.000 C 
ATOM     25  O   UNL     1      -5.446  -3.878  21.831  0.00  0.00    +0.000 OA
ATOM     26  H   UNL     1     -11.727   1.863  23.591  0.00  0.00    +0.000 HD
ATOM     27  H   UNL     1      -9.902   2.602  21.187  0.00  0.00    +0.000 HD
ATOM     28  H   UNL     1     -12.185   0.614  19.560  0.00  0.00    +0.000 HD
ATOM     29  H   UNL     1     -11.711  -1.742  19.078  0.00  0.00    +0.000 HD
ATOM     30  H   UNL     1     -11.005  -3.867  18.769  0.00  0.00    +0.000 HD
ATOM     31  H   UNL     1      -8.784  -8.288  18.426  0.00  0.00    +0.000 HD
ATOM     32  H   UNL     1      -6.637  -7.779  19.502  0.00  0.00    +0.000 HD
ATOM     33  H   UNL     1      -6.141  -5.548  20.356  0.00  0.00    +0.000 HD
ATOM     34  H   UNL     1      -6.846  -4.274  23.939  0.00  0.00    +0.000 HD
ENDROOT
BRANCH   1  35
ATOM     35  C   UNL     1      -9.240   0.812  24.496  0.00  0.00    +0.000 C 
ATOM     36  H   UNL     1      -9.939   1.146  25.267  0.00  0.00    +0.000 HD
ATOM     37  H   UNL     1      -8.326   1.385  24.468  0.00  0.00    +0.000 HD
ATOM     38  H   UNL     1      -8.992  -0.245  24.694  0.00  0.00    +0.000 HD
ENDBRANCH   1  35
BRANCH  11  39
ATOM     39  C   UNL     1     -10.892  -6.587  17.925  0.00  0.00    +0.000 C 
ATOM     40  H   UNL     1     -11.515  -5.682  17.951  0.00  0.00    +0.000 HD
ATOM     41  H   UNL     1     -11.445  -7.353  18.485  0.00  0.00    +0.000 HD
BRANCH  39  42
ATOM     42  C   UNL     1     -10.716  -7.044  16.471  0.00  0.00    +0.000 C 
ATOM     43  H   UNL     1      -9.729  -6.773  16.086  0.00  0.00    +0.000 HD
ATOM     44  H   UNL     1     -11.440  -6.507  15.845  0.00  0.00    +0.000 HD
BRANCH  42  45
ATOM     45  C   UNL     1     -10.923  -8.551  16.332  0.00  0.00    +0.000 C 
ATOM     46  H   UNL     1     -11.935  -8.709  15.947  0.00  0.00    +0.000 HD
ATOM     47  H   UNL     1     -10.844  -9.041  17.308  0.00  0.00    +0.000 HD
BRANCH  45  48
ATOM     48  N   UNL     1      -9.921  -9.118  15.429  0.00  0.00    +0.000 NA
ATOM     49  H   UNL     1      -9.357  -8.360  15.042  0.00  0.00    +0.000 HD
BRANCH  48  50
ATOM     50  C   UNL     1      -9.032 -10.064  16.121  0.00  0.00    +0.000 C 
ATOM     51  C   UNL     1      -9.318 -10.109  17.633  0.00  0.00    +0.000 C 
ATOM     52  C   UNL     1      -8.533 -11.208  18.338  0.00  0.00    +0.000 C 
ATOM     53  C   UNL     1      -8.783 -12.564  17.691  0.00  0.00    +0.000 C 
ATOM     54  C   UNL     1      -8.429 -12.532  16.207  0.00  0.00    +0.000 C 
ATOM     55  C   UNL     1      -9.214 -11.449  15.475  0.00  0.00    +0.000 C 
ATOM     56  H   UNL     1      -7.988  -9.761  15.967  0.00  0.00    +0.000 HD
ATOM     57  H   UNL     1     -10.391 -10.262  17.806  0.00  0.00    +0.000 HD
ATOM     58  H   UNL     1      -9.052  -9.156  18.106  0.00  0.00    +0.000 HD
ATOM     59  H   UNL     1      -8.806 -11.240  19.399  0.00  0.00    +0.000 HD
ATOM     60  H   UNL     1      -7.461 -10.971  18.313  0.00  0.00    +0.000 HD
ATOM     61  H   UNL     1      -9.838 -12.839  17.811  0.00  0.00    +0.000 HD
ATOM     62  H   UNL     1      -8.626 -13.511  15.756  0.00  0.00    +0.000 HD
ATOM     63  H   UNL     1      -7.351 -12.359  16.085  0.00  0.00    +0.000 HD
ATOM     64  H   UNL     1     -10.278 -11.723  15.466  0.00  0.00    +0.000 HD
ATOM     65  H   UNL     1      -8.888 -11.417  14.427  0.00  0.00    +0.000 HD
BRANCH  53  66
ATOM     66  O   UNL     1      -8.009 -13.558  18.350  0.00  0.00    +0.000 OA
ATOM     67  H   UNL     1      -8.608 -14.269  18.633  0.00  0.00    +0.000 HD
ENDBRANCH  53  66
ENDBRANCH  48  50
ENDBRANCH  45  48
ENDBRANCH  42  45
ENDBRANCH  39  42
ENDBRANCH  11  39
TORSDOF 7
ENDMDL
MODEL 2
REMARK VINA RESULT:   -11.100      1.881      2.544
REMARK INTER + INTRA:         -15.515
REMARK INTER:                 -14.740
REMARK INTRA:                  -0.775
REMARK UNBOUND:                -0.522
REMARK  Name = 
REMARK  7 active torsions:
REMARK  status: ('A' for Active; 'I' for Inactive)
REMARK    1  A    between atoms: C_1  and  N_2
REMARK    2  A    between atoms: C_12  and  C_13
REMARK    3  A    between atoms: C_13  and  C_14
REMARK    4  A    between atoms: C_14  and  C_15
REMARK    5  A    between atoms: C_15  and  N_16
REMARK    6  A    between atoms: N_16  and  C_17
REMARK    7  A    between atoms: C_20  and  O_21
REMARK                            x       y       z     vdW  Elec       q    Type
REMARK                         _______ _______ _______ _____ _____    ______ ____
ROOT
ATOM      1  N   UNL     1     -11.640   1.216  19.273  0.00  0.00    +0.000 N 
ATOM      2  C   UNL     1     -12.380   1.975  18.354  0.00  0.00    +0.000 A 
ATOM      3  C   UNL     1     -11.807   1.588  17.161  0.00  0.00    +0.000 A 
ATOM      4  C   UNL     1     -11.862   0.189  17.364  0.00  0.00    +0.000 A 
ATOM      5  C   UNL     1     -12.087  -0.870  16.472  0.00  0.00    +0.000 A 
ATOM      6  C   UNL     1     -11.764  -2.150  16.857  0.00  0.00    +0.000 A 
ATOM      7  C   UNL     1     -11.020  -2.298  18.019  0.00  0.00    +0.000 A 
ATOM      8  C   UNL     1     -10.325  -3.490  18.167  0.00  0.00    +0.000 A 
ATOM      9  N   UNL     1     -10.522  -4.737  17.625  0.00  0.00    +0.000 N 
ATOM     10  C   UNL     1      -9.819  -5.685  18.337  0.00  0.00    +0.000 A 
ATOM     11  C   UNL     1      -9.969  -7.082  18.294  0.00  0.00    +0.000 A 
ATOM     12  C   UNL     1      -9.151  -7.816  19.166  0.00  0.00    +0.000 A 
ATOM     13  C   UNL     1      -8.212  -7.199  19.996  0.00  0.00    +0.000 A 
ATOM     14  C   UNL     1      -8.075  -5.799  19.990  0.00  0.00    +0.000 A 
ATOM     15  C   UNL     1      -8.925  -5.021  19.190  0.00  0.00    +0.000 A 
ATOM     16  C   UNL     1      -9.271  -3.671  19.006  0.00  0.00    +0.000 A 
ATOM     17  C   UNL     1      -8.989  -2.665  19.971  0.00  0.00    +0.000 A 
ATOM     18  C   UNL     1     -10.074  -1.740  20.121  0.00  0.00    +0.000 A 
ATOM     19  C   UNL     1     -10.869  -1.301  19.033  0.00  0.00    +0.000 A 
ATOM     20  C   UNL     1     -11.424  -0.035  18.703  0.00  0.00    +0.000 A 
ATOM     21  C   UNL     1     -10.429  -1.984  21.519  0.00  0.00    +0.000 C 
ATOM     22  O   UNL     1     -11.514  -2.141  22.071  0.00  0.00    +0.000 OA
ATOM     23  N   UNL     1      -9.242  -2.410  22.090  0.00  0.00    +0.000 N 
ATOM     24  C   UNL     1      -8.284  -2.798  21.196  0.00  0.00    +0.000 C 
ATOM     25  O   UNL     1      -7.165  -3.188  21.496  0.00  0.00    +0.000 OA
ATOM     26  H   UNL     1     -13.440   2.067  18.576  0.00  0.00    +0.000 HD
ATOM     27  H   UNL     1     -10.850   2.024  16.858  0.00  0.00    +0.000 HD
ATOM     28  H   UNL     1     -12.477  -0.672  15.479  0.00  0.00    +0.000 HD
ATOM     29  H   UNL     1     -11.951  -2.965  16.164  0.00  0.00    +0.000 HD
ATOM     30  H   UNL     1     -11.263  -4.956  16.984  0.00  0.00    +0.000 HD
ATOM     31  H   UNL     1      -9.233  -8.901  19.202  0.00  0.00    +0.000 HD
ATOM     32  H   UNL     1      -7.594  -7.788  20.651  0.00  0.00    +0.000 HD
ATOM     33  H   UNL     1      -7.351  -5.359  20.664  0.00  0.00    +0.000 HD
ATOM     34  H   UNL     1      -9.238  -2.897  22.972  0.00  0.00    +0.000 HD
ENDROOT
BRANCH   1  35
ATOM     35  C   UNL     1     -11.480   1.721  20.613  0.00  0.00    +0.000 C 
ATOM     36  H   UNL     1     -11.377   0.874  21.296  0.00  0.00    +0.000 HD
ATOM     37  H   UNL     1     -12.298   2.378  20.863  0.00  0.00    +0.000 HD
ATOM     38  H   UNL     1     -10.538   2.298  20.643  0.00  0.00    +0.000 HD
ENDBRANCH   1  35
BRANCH  11  39
ATOM     39  C   UNL     1     -10.959  -7.762  17.381  0.00  0.00    +0.000 C 
ATOM     40  H   UNL     1     -11.775  -7.059  17.166  0.00  0.00    +0.000 HD
ATOM     41  H   UNL     1     -11.420  -8.617  17.894  0.00  0.00    +0.000 HD
BRANCH  39  42
ATOM     42  C   UNL     1     -10.331  -8.235  16.063  0.00  0.00    +0.000 C 
ATOM     43  H   UNL     1      -9.298  -7.888  15.968  0.00  0.00    +0.000 HD
ATOM     44  H   UNL     1     -10.880  -7.777  15.230  0.00  0.00    +0.000 HD
BRANCH  42  45
ATOM     45  C   UNL     1     -10.372  -9.757  15.942  0.00  0.00    +0.000 C 
ATOM     46  H   UNL     1     -11.227 -10.013  15.311  0.00  0.00    +0.000 HD
ATOM     47  H   UNL     1     -10.517 -10.217  16.925  0.00  0.00    +0.000 HD
BRANCH  45  48
ATOM     48  N   UNL     1      -9.122 -10.252  15.363  0.00  0.00    +0.000 NA
ATOM     49  H   UNL     1      -8.460  -9.478  15.293  0.00  0.00    +0.000 HD
BRANCH  48  50
ATOM     50  C   UNL     1      -8.522 -11.317  16.181  0.00  0.00    +0.000 C 
ATOM     51  C   UNL     1      -8.978 -11.230  17.648  0.00  0.00    +0.000 C 
ATOM     52  C   UNL     1      -8.511 -12.423  18.471  0.00  0.00    +0.000 C 
ATOM     53  C   UNL     1      -8.951 -13.735  17.836  0.00  0.00    +0.000 C 
ATOM     54  C   UNL     1      -8.434 -13.847  16.404  0.00  0.00    +0.000 C 
ATOM     55  C   UNL     1      -8.902 -12.670  15.555  0.00  0.00    +0.000 C 
ATOM     56  H   UNL     1      -7.428 -11.230  16.144  0.00  0.00    +0.000 HD
ATOM     57  H   UNL     1     -10.072 -11.163  17.696  0.00  0.00    +0.000 HD
ATOM     58  H   UNL     1      -8.582 -10.324  18.124  0.00  0.00    +0.000 HD
ATOM     59  H   UNL     1      -8.901 -12.349  19.493  0.00  0.00    +0.000 HD
ATOM     60  H   UNL     1      -7.417 -12.401  18.568  0.00  0.00    +0.000 HD
ATOM     61  H   UNL     1     -10.047 -13.795  17.837  0.00  0.00    +0.000 HD
ATOM     62  H   UNL     1      -8.770 -14.790  15.960  0.00  0.00    +0.000 HD
ATOM     63  H   UNL     1      -7.337 -13.893  16.407  0.00  0.00    +0.000 HD
ATOM     64  H   UNL     1      -9.991 -12.733  15.427  0.00  0.00    +0.000 HD
ATOM     65  H   UNL     1      -8.461 -12.755  14.553  0.00  0.00    +0.000 HD
BRANCH  53  66
ATOM     66  O   UNL     1      -8.468 -14.827  18.609  0.00  0.00    +0.000 OA
ATOM     67  H   UNL     1      -9.106 -15.556  18.533  0.00  0.00    +0.000 HD
ENDBRANCH  53  66
ENDBRANCH  48  50
ENDBRANCH  45  48
ENDBRANCH  42  45
ENDBRANCH  39  42
ENDBRANCH  11  39
TORSDOF 7
ENDMDL
MODEL 3
REMARK VINA RESULT:   -10.795      3.078      4.575
REMARK INTER + INTRA:         -15.103
REMARK INTER:                 -14.253
REMARK INTRA:                  -0.850
REMARK UNBOUND:                -0.522
REMARK  Name = 
REMARK  7 active torsions:
REMARK  status: ('A' for Active; 'I' for Inactive)
REMARK    1  A    between atoms: C_1  and  N_2
REMARK    2  A    between atoms: C_12  and  C_13
REMARK    3  A    between atoms: C_13  and  C_14
REMARK    4  A    between atoms: C_14  and  C_15
REMARK    5  A    between atoms: C_15  and  N_16
REMARK    6  A    between atoms: N_16  and  C_17
REMARK    7  A    between atoms: C_20  and  O_21
REMARK                            x       y       z     vdW  Elec       q    Type
REMARK                         _______ _______ _______ _____ _____    ______ ____
ROOT
ATOM      1  N   UNL     1     -11.779   1.395  18.745  0.00  0.00    +0.000 N 
ATOM      2  C   UNL     1     -12.017   2.049  19.963  0.00  0.00    +0.000 A 
ATOM      3  C   UNL     1     -12.663   1.061  20.677  0.00  0.00    +0.000 A 
ATOM      4  C   UNL     1     -11.748   0.012  20.427  0.00  0.00    +0.000 A 
ATOM      5  C   UNL     1     -11.314  -1.053  21.232  0.00  0.00    +0.000 A 
ATOM      6  C   UNL     1     -10.674  -2.119  20.644  0.00  0.00    +0.000 A 
ATOM      7  C   UNL     1     -10.698  -2.192  19.259  0.00  0.00    +0.000 A 
ATOM      8  C   UNL     1     -10.470  -3.440  18.695  0.00  0.00    +0.000 A 
ATOM      9  N   UNL     1      -9.817  -4.552  19.170  0.00  0.00    +0.000 N 
ATOM     10  C   UNL     1      -9.523  -5.413  18.135  0.00  0.00    +0.000 A 
ATOM     11  C   UNL     1      -8.632  -6.500  18.144  0.00  0.00    +0.000 A 
ATOM     12  C   UNL     1      -8.483  -7.185  16.928  0.00  0.00    +0.000 A 
ATOM     13  C   UNL     1      -9.209  -6.835  15.788  0.00  0.00    +0.000 A 
ATOM     14  C   UNL     1     -10.110  -5.755  15.828  0.00  0.00    +0.000 A 
ATOM     15  C   UNL     1     -10.234  -4.996  17.000  0.00  0.00    +0.000 A 
ATOM     16  C   UNL     1     -10.821  -3.793  17.431  0.00  0.00    +0.000 A 
ATOM     17  C   UNL     1     -11.239  -2.773  16.531  0.00  0.00    +0.000 A 
ATOM     18  C   UNL     1     -10.918  -1.462  17.012  0.00  0.00    +0.000 A 
ATOM     19  C   UNL     1     -10.996  -1.103  18.380  0.00  0.00    +0.000 A 
ATOM     20  C   UNL     1     -11.437   0.078  19.036  0.00  0.00    +0.000 A 
ATOM     21  C   UNL     1      -9.995  -1.023  15.966  0.00  0.00    +0.000 C 
ATOM     22  O   UNL     1      -8.905  -0.459  16.021  0.00  0.00    +0.000 OA
ATOM     23  N   UNL     1     -10.404  -1.729  14.848  0.00  0.00    +0.000 N 
ATOM     24  C   UNL     1     -11.217  -2.795  15.111  0.00  0.00    +0.000 C 
ATOM     25  O   UNL     1     -11.700  -3.532  14.264  0.00  0.00    +0.000 OA
ATOM     26  H   UNL     1     -11.212   2.692  20.309  0.00  0.00    +0.000 HD
ATOM     27  H   UNL     1     -13.723   0.871  20.491  0.00  0.00    +0.000 HD
ATOM     28  H   UNL     1     -11.515  -1.046  22.297  0.00  0.00    +0.000 HD
ATOM     29  H   UNL     1     -10.333  -2.934  21.276  0.00  0.00    +0.000 HD
ATOM     30  H   UNL     1      -9.392  -4.604  20.078  0.00  0.00    +0.000 HD
ATOM     31  H   UNL     1      -7.790  -8.021  16.859  0.00  0.00    +0.000 HD
ATOM     32  H   UNL     1      -9.079  -7.381  14.871  0.00  0.00    +0.000 HD
ATOM     33  H   UNL     1     -10.637  -5.504  14.916  0.00  0.00    +0.000 HD
ATOM     34  H   UNL     1      -9.798  -1.830  14.050  0.00  0.00    +0.000 HD
ENDROOT
BRANCH   1  35
ATOM     35  C   UNL     1     -11.682   2.189  17.545  0.00  0.00    +0.000 C 
ATOM     36  H   UNL     1     -12.661   2.627  17.337  0.00  0.00    +0.000 HD
ATOM     37  H   UNL     1     -11.297   1.591  16.734  0.00  0.00    +0.000 HD
ATOM     38  H   UNL     1     -10.975   3.014  17.746  0.00  0.00    +0.000 HD
ENDBRANCH   1  35
BRANCH  11  39
ATOM     39  C   UNL     1      -7.864  -6.906  19.377  0.00  0.00    +0.000 C 
ATOM     40  H   UNL     1      -7.625  -6.001  19.954  0.00  0.00    +0.000 HD
ATOM     41  H   UNL     1      -6.900  -7.349  19.093  0.00  0.00    +0.000 HD
BRANCH  39  42
ATOM     42  C   UNL     1      -8.635  -7.889  20.267  0.00  0.00    +0.000 C 
ATOM     43  H   UNL     1      -9.716  -7.782  20.133  0.00  0.00    +0.000 HD
ATOM     44  H   UNL     1      -8.436  -7.641  21.317  0.00  0.00    +0.000 HD
BRANCH  42  45
ATOM     45  C   UNL     1      -8.226  -9.333  19.986  0.00  0.00    +0.000 C 
ATOM     46  H   UNL     1      -8.119  -9.839  20.950  0.00  0.00    +0.000 HD
ATOM     47  H   UNL     1      -7.260  -9.366  19.470  0.00  0.00    +0.000 HD
BRANCH  45  48
ATOM     48  N   UNL     1      -9.233  -9.992  19.153  0.00  0.00    +0.000 NA
ATOM     49  H   UNL     1      -9.852  -9.283  18.759  0.00  0.00    +0.000 HD
BRANCH  48  50
ATOM     50  C   UNL     1      -8.623 -10.753  18.052  0.00  0.00    +0.000 C 
ATOM     51  C   UNL     1      -8.569 -12.259  18.365  0.00  0.00    +0.000 C 
ATOM     52  C   UNL     1      -8.107 -13.082  17.170  0.00  0.00    +0.000 C 
ATOM     53  C   UNL     1      -8.969 -12.806  15.945  0.00  0.00    +0.000 C 
ATOM     54  C   UNL     1      -8.959 -11.320  15.597  0.00  0.00    +0.000 C 
ATOM     55  C   UNL     1      -9.434 -10.474  16.774  0.00  0.00    +0.000 C 
ATOM     56  H   UNL     1      -7.601 -10.390  17.882  0.00  0.00    +0.000 HD
ATOM     57  H   UNL     1      -9.559 -12.610  18.685  0.00  0.00    +0.000 HD
ATOM     58  H   UNL     1      -7.877 -12.458  19.192  0.00  0.00    +0.000 HD
ATOM     59  H   UNL     1      -8.135 -14.149  17.417  0.00  0.00    +0.000 HD
ATOM     60  H   UNL     1      -7.055 -12.855  16.948  0.00  0.00    +0.000 HD
ATOM     61  H   UNL     1      -9.998 -13.131  16.140  0.00  0.00    +0.000 HD
ATOM     62  H   UNL     1      -9.594 -11.138  14.723  0.00  0.00    +0.000 HD
ATOM     63  H   UNL     1      -7.948 -11.013  15.301  0.00  0.00    +0.000 HD
ATOM     64  H   UNL     1     -10.499 -10.677  16.953  0.00  0.00    +0.000 HD
ATOM     65  H   UNL     1      -9.356  -9.413  16.506  0.00  0.00    +0.000 HD
BRANCH  53  66
ATOM     66  O   UNL     1      -8.488 -13.562  14.841  0.00  0.00    +0.000 OA
ATOM     67  H   UNL     1      -7.666 -13.147  14.527  0.00  0.00    +0.000 HD
ENDBRANCH  53  66
ENDBRANCH  48  50
ENDBRANCH  45  48
ENDBRANCH  42  45
ENDBRANCH  39  42
ENDBRANCH  11  39
TORSDOF 7
ENDMDL
MODEL 4
REMARK VINA RESULT:   -10.701      2.678      4.109
REMARK INTER + INTRA:         -14.976
REMARK INTER:                 -14.282
REMARK INTRA:                  -0.694
REMARK UNBOUND:                -0.522
REMARK  Name = 
REMARK  7 active torsions:
REMARK  status: ('A' for Active; 'I' for Inactive)
REMARK    1  A    between atoms: C_1  and  N_2
REMARK    2  A    between atoms: C_12  and  C_13
REMARK    3  A    between atoms: C_13  and  C_14
REMARK    4  A    between atoms: C_14  and  C_15
REMARK    5  A    between atoms: C_15  and  N_16
REMARK    6  A    between atoms: N_16  and  C_17
REMARK    7  A    between atoms: C_20  and  O_21
REMARK                            x       y       z     vdW  Elec       q    Type
REMARK                         _______ _______ _______ _____ _____    ______ ____
ROOT
ATOM      1  N   UNL     1     -10.573   1.577  20.615  0.00  0.00    +0.000 N 
ATOM      2  C   UNL     1     -10.402   2.016  21.937  0.00  0.00    +0.000 A 
ATOM      3  C   UNL     1     -10.942   0.962  22.642  0.00  0.00    +0.000 A 
ATOM      4  C   UNL     1     -10.251  -0.085  21.987  0.00  0.00    +0.000 A 
ATOM      5  C   UNL     1      -9.742  -1.302  22.463  0.00  0.00    +0.000 A 
ATOM      6  C   UNL     1      -9.407  -2.287  21.562  0.00  0.00    +0.000 A 
ATOM      7  C   UNL     1      -9.807  -2.108  20.245  0.00  0.00    +0.000 A 
ATOM      8  C   UNL     1      -9.880  -3.247  19.456  0.00  0.00    +0.000 A 
ATOM      9  N   UNL     1      -9.255  -4.467  19.550  0.00  0.00    +0.000 N 
ATOM     10  C   UNL     1      -9.346  -5.146  18.355  0.00  0.00    +0.000 A 
ATOM     11  C   UNL     1      -8.614  -6.274  17.945  0.00  0.00    +0.000 A 
ATOM     12  C   UNL     1      -8.873  -6.739  16.647  0.00  0.00    +0.000 A 
ATOM     13  C   UNL     1      -9.832  -6.143  15.825  0.00  0.00    +0.000 A 
ATOM     14  C   UNL     1     -10.562  -5.030  16.283  0.00  0.00    +0.000 A 
ATOM     15  C   UNL     1     -10.282  -4.487  17.545  0.00  0.00    +0.000 A 
ATOM     16  C   UNL     1     -10.593  -3.344  18.303  0.00  0.00    +0.000 A 
ATOM     17  C   UNL     1     -11.117  -2.155  17.725  0.00  0.00    +0.000 A 
ATOM     18  C   UNL     1     -10.534  -0.975  18.292  0.00  0.00    +0.000 A 
ATOM     19  C   UNL     1     -10.203  -0.862  19.665  0.00  0.00    +0.000 A 
ATOM     20  C   UNL     1     -10.317   0.209  20.592  0.00  0.00    +0.000 A 
ATOM     21  C   UNL     1      -9.879  -0.417  17.109  0.00  0.00    +0.000 C 
ATOM     22  O   UNL     1      -8.758   0.054  16.941  0.00  0.00    +0.000 OA
ATOM     23  N   UNL     1     -10.648  -0.883  16.056  0.00  0.00    +0.000 N 
ATOM     24  C   UNL     1     -11.478  -1.923  16.371  0.00  0.00    +0.000 C 
ATOM     25  O   UNL     1     -12.248  -2.462  15.591  0.00  0.00    +0.000 OA
ATOM     26  H   UNL     1      -9.467   2.532  22.136  0.00  0.00    +0.000 HD
ATOM     27  H   UNL     1     -12.028   0.878  22.736  0.00  0.00    +0.000 HD
ATOM     28  H   UNL     1      -9.650  -1.473  23.530  0.00  0.00    +0.000 HD
ATOM     29  H   UNL     1      -9.004  -3.221  21.939  0.00  0.00    +0.000 HD
ATOM     30  H   UNL     1      -8.612  -4.709  20.283  0.00  0.00    +0.000 HD
ATOM     31  H   UNL     1      -8.322  -7.593  16.258  0.00  0.00    +0.000 HD
ATOM     32  H   UNL     1     -10.014  -6.524  14.836  0.00  0.00    +0.000 HD
ATOM     33  H   UNL     1     -11.280  -4.585  15.606  0.00  0.00    +0.000 HD
ATOM     34  H   UNL     1     -10.292  -0.879  15.115  0.00  0.00    +0.000 HD
ENDROOT
BRANCH   1  35
ATOM     35  C   UNL     1     -10.709   2.564  19.573  0.00  0.00    +0.000 C 
ATOM     36  H   UNL     1     -11.445   2.206  18.848  0.00  0.00    +0.000 HD
ATOM     37  H   UNL     1      -9.746   2.781  19.138  0.00  0.00    +0.000 HD
ATOM     38  H   UNL     1     -11.107   3.485  20.035  0.00  0.00    +0.000 HD
ENDBRANCH   1  35
BRANCH  11  39
ATOM     39  C   UNL     1      -7.596  -6.944  18.835  0.00  0.00    +0.000 C 
ATOM     40  H   UNL     1      -6.966  -6.168  19.291  0.00  0.00    +0.000 HD
ATOM     41  H   UNL     1      -6.922  -7.569  18.233  0.00  0.00    +0.000 HD
BRANCH  39  42
ATOM     42  C   UNL     1      -8.234  -7.799  19.938  0.00  0.00    +0.000 C 
ATOM     43  H   UNL     1      -8.776  -7.178  20.658  0.00  0.00    +0.000 HD
ATOM     44  H   UNL     1      -7.434  -8.290  20.506  0.00  0.00    +0.000 HD
BRANCH  42  45
ATOM     45  C   UNL     1      -9.179  -8.847  19.354  0.00  0.00    +0.000 C 
ATOM     46  H   UNL     1      -9.391  -8.559  18.321  0.00  0.00    +0.000 HD
ATOM     47  H   UNL     1     -10.123  -8.864  19.909  0.00  0.00    +0.000 HD
BRANCH  45  48
ATOM     48  N   UNL     1      -8.564 -10.173  19.416  0.00  0.00    +0.000 NA
ATOM     49  H   UNL     1      -8.799 -10.605  20.311  0.00  0.00    +0.000 HD
BRANCH  48  50
ATOM     50  C   UNL     1      -9.034 -11.048  18.331  0.00  0.00    +0.000 C 
ATOM     51  C   UNL     1      -8.904 -10.366  16.957  0.00  0.00    +0.000 C 
ATOM     52  C   UNL     1      -9.216 -11.315  15.808  0.00  0.00    +0.000 C 
ATOM     53  C   UNL     1      -8.355 -12.570  15.882  0.00  0.00    +0.000 C 
ATOM     54  C   UNL     1      -8.545 -13.281  17.219  0.00  0.00    +0.000 C 
ATOM     55  C   UNL     1      -8.223 -12.355  18.387  0.00  0.00    +0.000 C 
ATOM     56  H   UNL     1     -10.088 -11.304  18.501  0.00  0.00    +0.000 HD
ATOM     57  H   UNL     1      -7.889  -9.967  16.833  0.00  0.00    +0.000 HD
ATOM     58  H   UNL     1      -9.592  -9.515  16.880  0.00  0.00    +0.000 HD
ATOM     59  H   UNL     1      -9.059 -10.807  14.850  0.00  0.00    +0.000 HD
ATOM     60  H   UNL     1     -10.280 -11.587  15.831  0.00  0.00    +0.000 HD
ATOM     61  H   UNL     1      -7.300 -12.300  15.756  0.00  0.00    +0.000 HD
ATOM     62  H   UNL     1      -7.910 -14.173  17.260  0.00  0.00    +0.000 HD
ATOM     63  H   UNL     1      -9.577 -13.644  17.305  0.00  0.00    +0.000 HD
ATOM     64  H   UNL     1      -7.148 -12.130  18.379  0.00  0.00    +0.000 HD
ATOM     65  H   UNL     1      -8.428 -12.881  19.328  0.00  0.00    +0.000 HD
BRANCH  53  66
ATOM     66  O   UNL     1      -8.698 -13.448  14.818  0.00  0.00    +0.000 OA
ATOM     67  H   UNL     1      -9.190 -12.938  14.152  0.00  0.00    +0.000 HD
ENDBRANCH  53  66
ENDBRANCH  48  50
ENDBRANCH  45  48
ENDBRANCH  42  45
ENDBRANCH  39  42
ENDBRANCH  11  39
TORSDOF 7
ENDMDL
MODEL 5
REMARK VINA RESULT:   -10.046      2.251      3.249
REMARK INTER + INTRA:         -14.091
REMARK INTER:                 -13.387
REMARK INTRA:                  -0.704
REMARK UNBOUND:                -0.522
REMARK  Name = 
REMARK  7 active torsions:
REMARK  status: ('A' for Active; 'I' for Inactive)
REMARK    1  A    between atoms: C_1  and  N_2
REMARK    2  A    between atoms: C_12  and  C_13
REMARK    3  A    between atoms: C_13  and  C_14
REMARK    4  A    between atoms: C_14  and  C_15
REMARK    5  A    between atoms: C_15  and  N_16
REMARK    6  A    between atoms: N_16  and  C_17
REMARK    7  A    between atoms: C_20  and  O_21
REMARK                            x       y       z     vdW  Elec       q    Type
REMARK                         _______ _______ _______ _____ _____    ______ ____
ROOT
ATOM      1  N   UNL     1     -12.877   2.036  18.975  0.00  0.00    +0.000 N 
ATOM      2  C   UNL     1     -13.546   2.599  17.877  0.00  0.00    +0.000 A 
ATOM      3  C   UNL     1     -12.624   2.403  16.871  0.00  0.00    +0.000 A 
ATOM      4  C   UNL     1     -12.364   1.033  17.110  0.00  0.00    +0.000 A 
ATOM      5  C   UNL     1     -12.088  -0.027  16.234  0.00  0.00    +0.000 A 
ATOM      6  C   UNL     1     -11.548  -1.188  16.735  0.00  0.00    +0.000 A 
ATOM      7  C   UNL     1     -11.091  -1.164  18.045  0.00  0.00    +0.000 A 
ATOM      8  C   UNL     1     -10.168  -2.138  18.401  0.00  0.00    +0.000 A 
ATOM      9  N   UNL     1      -9.901  -3.381  17.878  0.00  0.00    +0.000 N 
ATOM     10  C   UNL     1      -9.169  -4.130  18.773  0.00  0.00    +0.000 A 
ATOM     11  C   UNL     1      -8.939  -5.516  18.753  0.00  0.00    +0.000 A 
ATOM     12  C   UNL     1      -8.192  -6.033  19.822  0.00  0.00    +0.000 A 
ATOM     13  C   UNL     1      -7.671  -5.213  20.825  0.00  0.00    +0.000 A 
ATOM     14  C   UNL     1      -7.903  -3.826  20.796  0.00  0.00    +0.000 A 
ATOM     15  C   UNL     1      -8.707  -3.277  19.787  0.00  0.00    +0.000 A 
ATOM     16  C   UNL     1      -9.335  -2.059  19.472  0.00  0.00    +0.000 A 
ATOM     17  C   UNL     1      -9.562  -1.037  20.436  0.00  0.00    +0.000 A 
ATOM     18  C   UNL     1     -10.852  -0.430  20.288  0.00  0.00    +0.000 A 
ATOM     19  C   UNL     1     -11.449  -0.187  19.026  0.00  0.00    +0.000 A 
ATOM     20  C   UNL     1     -12.216   0.898  18.523  0.00  0.00    +0.000 A 
ATOM     21  C   UNL     1     -11.455  -0.791  21.571  0.00  0.00    +0.000 C 
ATOM     22  O   UNL     1     -12.562  -1.237  21.856  0.00  0.00    +0.000 OA
ATOM     23  N   UNL     1     -10.371  -0.907  22.423  0.00  0.00    +0.000 N 
ATOM     24  C   UNL     1      -9.160  -1.012  21.798  0.00  0.00    +0.000 C 
ATOM     25  O   UNL     1      -8.084  -1.104  22.369  0.00  0.00    +0.000 OA
ATOM     26  H   UNL     1     -14.615   2.408  17.839  0.00  0.00    +0.000 HD
ATOM     27  H   UNL     1     -11.769   3.079  16.786  0.00  0.00    +0.000 HD
ATOM     28  H   UNL     1     -12.267   0.087  15.170  0.00  0.00    +0.000 HD
ATOM     29  H   UNL     1     -11.347  -2.007  16.051  0.00  0.00    +0.000 HD
ATOM     30  H   UNL     1     -10.385  -3.769  17.089  0.00  0.00    +0.000 HD
ATOM     31  H   UNL     1      -7.998  -7.103  19.881  0.00  0.00    +0.000 HD
ATOM     32  H   UNL     1      -7.097  -5.636  21.631  0.00  0.00    +0.000 HD
ATOM     33  H   UNL     1      -7.499  -3.229  21.604  0.00  0.00    +0.000 HD
ATOM     34  H   UNL     1     -10.452  -1.397  23.299  0.00  0.00    +0.000 HD
ENDROOT
BRANCH   1  35
ATOM     35  C   UNL     1     -13.178   2.535  20.294  0.00  0.00    +0.000 C 
ATOM     36  H   UNL     1     -14.153   3.028  20.266  0.00  0.00    +0.000 HD
ATOM     37  H   UNL     1     -12.381   3.175  20.639  0.00  0.00    +0.000 HD
ATOM     38  H   UNL     1     -13.255   1.665  20.971  0.00  0.00    +0.000 HD
ENDBRANCH   1  35
BRANCH  11  39
ATOM     39  C   UNL     1      -9.472  -6.408  17.659  0.00  0.00    +0.000 C 
ATOM     40  H   UNL     1     -10.371  -5.941  17.234  0.00  0.00    +0.000 HD
ATOM     41  H   UNL     1      -9.798  -7.369  18.080  0.00  0.00    +0.000 HD
BRANCH  39  42
ATOM     42  C   UNL     1      -8.451  -6.661  16.541  0.00  0.00    +0.000 C 
ATOM     43  H   UNL     1      -7.493  -6.998  16.948  0.00  0.00    +0.000 HD
ATOM     44  H   UNL     1      -8.245  -5.710  16.034  0.00  0.00    +0.000 HD
BRANCH  42  45
ATOM     45  C   UNL     1      -8.969  -7.687  15.536  0.00  0.00    +0.000 C 
ATOM     46  H   UNL     1      -8.198  -8.455  15.423  0.00  0.00    +0.000 HD
ATOM     47  H   UNL     1      -9.136  -7.218  14.560  0.00  0.00    +0.000 HD
BRANCH  45  48
ATOM     48  N   UNL     1     -10.227  -8.268  16.007  0.00  0.00    +0.000 NA
ATOM     49  H   UNL     1     -10.973  -8.014  15.357  0.00  0.00    +0.000 HD
BRANCH  48  50
ATOM     50  C   UNL     1     -10.156  -9.734  16.097  0.00  0.00    +0.000 C 
ATOM     51  C   UNL     1      -9.391 -10.339  14.906  0.00  0.00    +0.000 C 
ATOM     52  C   UNL     1      -9.152 -11.834  15.070  0.00  0.00    +0.000 C 
ATOM     53  C   UNL     1      -8.448 -12.137  16.386  0.00  0.00    +0.000 C 
ATOM     54  C   UNL     1      -9.249 -11.598  17.568  0.00  0.00    +0.000 C 
ATOM     55  C   UNL     1      -9.488 -10.098  17.435  0.00  0.00    +0.000 C 
ATOM     56  H   UNL     1     -11.173 -10.147  16.110  0.00  0.00    +0.000 HD
ATOM     57  H   UNL     1      -8.426  -9.829  14.784  0.00  0.00    +0.000 HD
ATOM     58  H   UNL     1      -9.948 -10.193  13.973  0.00  0.00    +0.000 HD
ATOM     59  H   UNL     1      -8.559 -12.213  14.230  0.00  0.00    +0.000 HD
ATOM     60  H   UNL     1     -10.110 -12.369  15.024  0.00  0.00    +0.000 HD
ATOM     61  H   UNL     1      -7.449 -11.683  16.382  0.00  0.00    +0.000 HD
ATOM     62  H   UNL     1      -8.722 -11.814  18.504  0.00  0.00    +0.000 HD
ATOM     63  H   UNL     1     -10.210 -12.124  17.638  0.00  0.00    +0.000 HD
ATOM     64  H   UNL     1      -8.528  -9.573  17.531  0.00  0.00    +0.000 HD
ATOM     65  H   UNL     1     -10.116  -9.760  18.269  0.00  0.00    +0.000 HD
BRANCH  53  66
ATOM     66  O   UNL     1      -8.274 -13.541  16.523  0.00  0.00    +0.000 OA
ATOM     67  H   UNL     1      -7.432 -13.784  16.102  0.00  0.00    +0.000 HD
ENDBRANCH  53  66
ENDBRANCH  48  50
ENDBRANCH  45  48
ENDBRANCH  42  45
ENDBRANCH  39  42
ENDBRANCH  11  39
TORSDOF 7
ENDMDL
MODEL 6
REMARK VINA RESULT:    -9.957      5.437      9.192
REMARK INTER + INTRA:         -13.972
REMARK INTER:                 -12.860
REMARK INTRA:                  -1.111
REMARK UNBOUND:                -0.522
REMARK  Name = 
REMARK  7 active torsions:
REMARK  status: ('A' for Active; 'I' for Inactive)
REMARK    1  A    between atoms: C_1  and  N_2
REMARK    2  A    between atoms: C_12  and  C_13
REMARK    3  A    between atoms: C_13  and  C_14
REMARK    4  A    between atoms: C_14  and  C_15
REMARK    5  A    between atoms: C_15  and  N_16
REMARK    6  A    between atoms: N_16  and  C_17
REMARK    7  A    between atoms: C_20  and  O_21
REMARK                            x       y       z     vdW  Elec       q    Type
REMARK                         _______ _______ _______ _____ _____    ______ ____
ROOT
ATOM      1  N   UNL     1      -8.906  -9.248  18.770  0.00  0.00    +0.000 N 
ATOM      2  C   UNL     1      -8.606 -10.535  18.298  0.00  0.00    +0.000 A 
ATOM      3  C   UNL     1      -9.473 -10.641  17.232  0.00  0.00    +0.000 A 
ATOM      4  C   UNL     1      -9.171  -9.405  16.613  0.00  0.00    +0.000 A 
ATOM      5  C   UNL     1      -9.103  -9.035  15.261  0.00  0.00    +0.000 A 
ATOM      6  C   UNL     1      -9.113  -7.701  14.930  0.00  0.00    +0.000 A 
ATOM      7  C   UNL     1      -9.422  -6.797  15.937  0.00  0.00    +0.000 A 
ATOM      8  C   UNL     1      -9.869  -5.545  15.536  0.00  0.00    +0.000 A 
ATOM      9  N   UNL     1      -9.691  -4.840  14.370  0.00  0.00    +0.000 N 
ATOM     10  C   UNL     1      -9.998  -3.511  14.562  0.00  0.00    +0.000 A 
ATOM     11  C   UNL     1      -9.685  -2.424  13.727  0.00  0.00    +0.000 A 
ATOM     12  C   UNL     1     -10.077  -1.159  14.190  0.00  0.00    +0.000 A 
ATOM     13  C   UNL     1     -10.775  -0.992  15.388  0.00  0.00    +0.000 A 
ATOM     14  C   UNL     1     -11.091  -2.110  16.182  0.00  0.00    +0.000 A 
ATOM     15  C   UNL     1     -10.652  -3.384  15.796  0.00  0.00    +0.000 A 
ATOM     16  C   UNL     1     -10.566  -4.684  16.324  0.00  0.00    +0.000 A 
ATOM     17  C   UNL     1     -10.656  -4.959  17.717  0.00  0.00    +0.000 A 
ATOM     18  C   UNL     1      -9.713  -5.954  18.135  0.00  0.00    +0.000 A 
ATOM     19  C   UNL     1      -9.373  -7.075  17.339  0.00  0.00    +0.000 A 
ATOM     20  C   UNL     1      -9.125  -8.437  17.660  0.00  0.00    +0.000 A 
ATOM     21  C   UNL     1      -8.902  -5.166  19.063  0.00  0.00    +0.000 C 
ATOM     22  O   UNL     1      -7.687  -5.073  19.210  0.00  0.00    +0.000 OA
ATOM     23  N   UNL     1      -9.777  -4.197  19.525  0.00  0.00    +0.000 N 
ATOM     24  C   UNL     1     -10.909  -4.046  18.775  0.00  0.00    +0.000 C 
ATOM     25  O   UNL     1     -11.812  -3.260  19.024  0.00  0.00    +0.000 OA
ATOM     26  H   UNL     1      -7.553 -10.802  18.320  0.00  0.00    +0.000 HD
ATOM     27  H   UNL     1     -10.525 -10.877  17.415  0.00  0.00    +0.000 HD
ATOM     28  H   UNL     1      -9.081  -9.797  14.489  0.00  0.00    +0.000 HD
ATOM     29  H   UNL     1      -9.051  -7.423  13.882  0.00  0.00    +0.000 HD
ATOM     30  H   UNL     1      -9.171  -5.186  13.584  0.00  0.00    +0.000 HD
ATOM     31  H   UNL     1      -9.844  -0.272  13.604  0.00  0.00    +0.000 HD
ATOM     32  H   UNL     1     -11.068  -0.011  15.715  0.00  0.00    +0.000 HD
ATOM     33  H   UNL     1     -11.614  -1.935  17.114  0.00  0.00    +0.000 HD
ATOM     34  H   UNL     1      -9.435  -3.362  19.971  0.00  0.00    +0.000 HD
ENDROOT
BRANCH   1  35
ATOM     35  C   UNL     1      -8.697  -8.960  20.167  0.00  0.00    +0.000 C 
ATOM     36  H   UNL     1      -8.512  -7.888  20.277  0.00  0.00    +0.000 HD
ATOM     37  H   UNL     1      -7.902  -9.576  20.558  0.00  0.00    +0.000 HD
ATOM     38  H   UNL     1      -9.632  -9.202  20.702  0.00  0.00    +0.000 HD
ENDBRANCH   1  35
BRANCH  11  39
ATOM     39  C   UNL     1      -8.957  -2.594  12.416  0.00  0.00    +0.000 C 
ATOM     40  H   UNL     1      -9.460  -3.381  11.837  0.00  0.00    +0.000 HD
ATOM     41  H   UNL     1      -7.935  -2.954  12.596  0.00  0.00    +0.000 HD
BRANCH  39  42
ATOM     42  C   UNL     1      -8.905  -1.304  11.588  0.00  0.00    +0.000 C 
ATOM     43  H   UNL     1      -7.873  -0.985  11.414  0.00  0.00    +0.000 HD
ATOM     44  H   UNL     1      -9.374  -0.498  12.167  0.00  0.00    +0.000 HD
BRANCH  42  45
ATOM     45  C   UNL     1      -9.622  -1.471  10.250  0.00  0.00    +0.000 C 
ATOM     46  H   UNL     1      -8.857  -1.636   9.486  0.00  0.00    +0.000 HD
ATOM     47  H   UNL     1     -10.175  -0.561   9.995  0.00  0.00    +0.000 HD
BRANCH  45  48
ATOM     48  N   UNL     1     -10.556  -2.596  10.314  0.00  0.00    +0.000 NA
ATOM     49  H   UNL     1     -10.324  -3.174  11.123  0.00  0.00    +0.000 HD
BRANCH  48  50
ATOM     50  C   UNL     1     -11.950  -2.145  10.437  0.00  0.00    +0.000 C 
ATOM     51  C   UNL     1     -12.560  -2.552  11.791  0.00  0.00    +0.000 C 
ATOM     52  C   UNL     1     -13.939  -1.945  12.011  0.00  0.00    +0.000 C 
ATOM     53  C   UNL     1     -13.902  -0.430  11.859  0.00  0.00    +0.000 C 
ATOM     54  C   UNL     1     -13.365  -0.034  10.486  0.00  0.00    +0.000 C 
ATOM     55  C   UNL     1     -11.977  -0.618  10.247  0.00  0.00    +0.000 C 
ATOM     56  H   UNL     1     -12.549  -2.590   9.632  0.00  0.00    +0.000 HD
ATOM     57  H   UNL     1     -11.894  -2.246  12.608  0.00  0.00    +0.000 HD
ATOM     58  H   UNL     1     -12.664  -3.642  11.856  0.00  0.00    +0.000 HD
ATOM     59  H   UNL     1     -14.312  -2.215  13.006  0.00  0.00    +0.000 HD
ATOM     60  H   UNL     1     -14.653  -2.377  11.297  0.00  0.00    +0.000 HD
ATOM     61  H   UNL     1     -13.267   0.003  12.641  0.00  0.00    +0.000 HD
ATOM     62  H   UNL     1     -13.335   1.058  10.400  0.00  0.00    +0.000 HD
ATOM     63  H   UNL     1     -14.054  -0.377   9.704  0.00  0.00    +0.000 HD
ATOM     64  H   UNL     1     -11.266  -0.142  10.936  0.00  0.00    +0.000 HD
ATOM     65  H   UNL     1     -11.652  -0.363   9.231  0.00  0.00    +0.000 HD
BRANCH  53  66
ATOM     66  O   UNL     1     -15.210   0.100  12.035  0.00  0.00    +0.000 OA
ATOM     67  H   UNL     1     -15.129   0.969  12.463  0.00  0.00    +0.000 HD
ENDBRANCH  53  66
ENDBRANCH  48  50
ENDBRANCH  45  48
ENDBRANCH  42  45
ENDBRANCH  39  42
ENDBRANCH  11  39
TORSDOF 7
ENDMDL
MODEL 7
REMARK VINA RESULT:    -9.858      5.090      6.974
REMARK INTER + INTRA:         -13.837
REMARK INTER:                 -13.389
REMARK INTRA:                  -0.448
REMARK UNBOUND:                -0.522
REMARK  Name = 
REMARK  7 active torsions:
REMARK  status: ('A' for Active; 'I' for Inactive)
REMARK    1  A    between atoms: C_1  and  N_2
REMARK    2  A    between atoms: C_12  and  C_13
REMARK    3  A    between atoms: C_13  and  C_14
REMARK    4  A    between atoms: C_14  and  C_15
REMARK    5  A    between atoms: C_15  and  N_16
REMARK    6  A    between atoms: N_16  and  C_17
REMARK    7  A    between atoms: C_20  and  O_21
REMARK                            x       y       z     vdW  Elec       q    Type
REMARK                         _______ _______ _______ _____ _____    ______ ____
ROOT
ATOM      1  N   UNL     1     -13.543   0.314  11.935  0.00  0.00    +0.000 N 
ATOM      2  C   UNL     1     -13.905   0.109  10.595  0.00  0.00    +0.000 A 
ATOM      3  C   UNL     1     -12.843  -0.644  10.142  0.00  0.00    +0.000 A 
ATOM      4  C   UNL     1     -12.823  -1.600  11.184  0.00  0.00    +0.000 A 
ATOM      5  C   UNL     1     -12.532  -2.973  11.179  0.00  0.00    +0.000 A 
ATOM      6  C   UNL     1     -12.262  -3.604  12.371  0.00  0.00    +0.000 A 
ATOM      7  C   UNL     1     -12.067  -2.803  13.487  0.00  0.00    +0.000 A 
ATOM      8  C   UNL     1     -11.372  -3.368  14.547  0.00  0.00    +0.000 A 
ATOM      9  N   UNL     1     -11.182  -4.677  14.923  0.00  0.00    +0.000 N 
ATOM     10  C   UNL     1     -10.745  -4.742  16.228  0.00  0.00    +0.000 A 
ATOM     11  C   UNL     1     -10.707  -5.867  17.070  0.00  0.00    +0.000 A 
ATOM     12  C   UNL     1     -10.259  -5.642  18.380  0.00  0.00    +0.000 A 
ATOM     13  C   UNL     1      -9.833  -4.383  18.810  0.00  0.00    +0.000 A 
ATOM     14  C   UNL     1      -9.862  -3.287  17.928  0.00  0.00    +0.000 A 
ATOM     15  C   UNL     1     -10.375  -3.451  16.633  0.00  0.00    +0.000 A 
ATOM     16  C   UNL     1     -10.758  -2.663  15.533  0.00  0.00    +0.000 A 
ATOM     17  C   UNL     1     -11.024  -1.269  15.639  0.00  0.00    +0.000 A 
ATOM     18  C   UNL     1     -12.165  -0.876  14.867  0.00  0.00    +0.000 A 
ATOM     19  C   UNL     1     -12.469  -1.436  13.601  0.00  0.00    +0.000 A 
ATOM     20  C   UNL     1     -12.970  -0.866  12.399  0.00  0.00    +0.000 A 
ATOM     21  C   UNL     1     -13.048  -0.405  15.934  0.00  0.00    +0.000 C 
ATOM     22  O   UNL     1     -14.240  -0.599  16.154  0.00  0.00    +0.000 OA
ATOM     23  N   UNL     1     -12.174   0.015  16.923  0.00  0.00    +0.000 N 
ATOM     24  C   UNL     1     -10.892  -0.436  16.781  0.00  0.00    +0.000 C 
ATOM     25  O   UNL     1      -9.969  -0.165  17.535  0.00  0.00    +0.000 OA
ATOM     26  H   UNL     1     -14.963  -0.073  10.424  0.00  0.00    +0.000 HD
ATOM     27  H   UNL     1     -11.903  -0.147   9.885  0.00  0.00    +0.000 HD
ATOM     28  H   UNL     1     -12.485  -3.516  10.242  0.00  0.00    +0.000 HD
ATOM     29  H   UNL     1     -12.048  -4.668  12.359  0.00  0.00    +0.000 HD
ATOM     30  H   UNL     1     -11.554  -5.461  14.418  0.00  0.00    +0.000 HD
ATOM     31  H   UNL     1     -10.228  -6.465  19.091  0.00  0.00    +0.000 HD
ATOM     32  H   UNL     1      -9.488  -4.240  19.819  0.00  0.00    +0.000 HD
ATOM     33  H   UNL     1      -9.544  -2.325  18.307  0.00  0.00    +0.000 HD
ATOM     34  H   UNL     1     -12.489   0.143  17.870  0.00  0.00    +0.000 HD
ENDROOT
BRANCH   1  35
ATOM     35  C   UNL     1     -14.021   1.498  12.604  0.00  0.00    +0.000 C 
ATOM     36  H   UNL     1     -15.070   1.650  12.337  0.00  0.00    +0.000 HD
ATOM     37  H   UNL     1     -13.390   2.340  12.365  0.00  0.00    +0.000 HD
ATOM     38  H   UNL     1     -13.970   1.312  13.691  0.00  0.00    +0.000 HD
ENDBRANCH   1  35
BRANCH  11  39
ATOM     39  C   UNL     1     -11.137  -7.238  16.608  0.00  0.00    +0.000 C 
ATOM     40  H   UNL     1     -11.844  -7.120  15.775  0.00  0.00    +0.000 HD
ATOM     41  H   UNL     1     -11.691  -7.749  17.407  0.00  0.00    +0.000 HD
BRANCH  39  42
ATOM     42  C   UNL     1      -9.961  -8.115  16.160  0.00  0.00    +0.000 C 
ATOM     43  H   UNL     1      -9.015  -7.752  16.573  0.00  0.00    +0.000 HD
ATOM     44  H   UNL     1      -9.862  -8.037  15.069  0.00  0.00    +0.000 HD
BRANCH  42  45
ATOM     45  C   UNL     1     -10.168  -9.573  16.562  0.00  0.00    +0.000 C 
ATOM     46  H   UNL     1     -10.181 -10.169  15.645  0.00  0.00    +0.000 HD
ATOM     47  H   UNL     1     -11.132  -9.698  17.068  0.00  0.00    +0.000 HD
BRANCH  45  48
ATOM     48  N   UNL     1      -9.098 -10.008  17.460  0.00  0.00    +0.000 NA
ATOM     49  H   UNL     1      -9.476 -10.108  18.403  0.00  0.00    +0.000 HD
BRANCH  48  50
ATOM     50  C   UNL     1      -8.520 -11.294  17.042  0.00  0.00    +0.000 C 
ATOM     51  C   UNL     1      -8.964 -12.442  17.966  0.00  0.00    +0.000 C 
ATOM     52  C   UNL     1      -8.523 -13.805  17.450  0.00  0.00    +0.000 C 
ATOM     53  C   UNL     1      -9.001 -14.033  16.022  0.00  0.00    +0.000 C 
ATOM     54  C   UNL     1      -8.495 -12.930  15.097  0.00  0.00    +0.000 C 
ATOM     55  C   UNL     1      -8.938 -11.555  15.584  0.00  0.00    +0.000 C 
ATOM     56  H   UNL     1      -7.424 -11.225  17.066  0.00  0.00    +0.000 HD
ATOM     57  H   UNL     1     -10.056 -12.432  18.076  0.00  0.00    +0.000 HD
ATOM     58  H   UNL     1      -8.542 -12.316  18.971  0.00  0.00    +0.000 HD
ATOM     59  H   UNL     1      -8.905 -14.596  18.106  0.00  0.00    +0.000 HD
ATOM     60  H   UNL     1      -7.428 -13.883  17.497  0.00  0.00    +0.000 HD
ATOM     61  H   UNL     1     -10.097 -14.057  16.001  0.00  0.00    +0.000 HD
ATOM     62  H   UNL     1      -8.859 -13.104  14.078  0.00  0.00    +0.000 HD
ATOM     63  H   UNL     1      -7.400 -12.969  15.034  0.00  0.00    +0.000 HD
ATOM     64  H   UNL     1     -10.029 -11.475  15.486  0.00  0.00    +0.000 HD
ATOM     65  H   UNL     1      -8.506 -10.787  14.930  0.00  0.00    +0.000 HD
BRANCH  53  66
ATOM     66  O   UNL     1      -8.541 -15.297  15.560  0.00  0.00    +0.000 OA
ATOM     67  H   UNL     1      -7.604 -15.207  15.316  0.00  0.00    +0.000 HD
ENDBRANCH  53  66
ENDBRANCH  48  50
ENDBRANCH  45  48
ENDBRANCH  42  45
ENDBRANCH  39  42
ENDBRANCH  11  39
TORSDOF 7
ENDMDL
MODEL 8
REMARK VINA RESULT:    -9.799      3.355      7.235
REMARK INTER + INTRA:         -13.758
REMARK INTER:                 -12.194
REMARK INTRA:                  -1.565
REMARK UNBOUND:                -0.522
REMARK  Name = 
REMARK  7 active torsions:
REMARK  status: ('A' for Active; 'I' for Inactive)
REMARK    1  A    between atoms: C_1  and  N_2
REMARK    2  A    between atoms: C_12  and  C_13
REMARK    3  A    between atoms: C_13  and  C_14
REMARK    4  A    between atoms: C_14  and  C_15
REMARK    5  A    between atoms: C_15  and  N_16
REMARK    6  A    between atoms: N_16  and  C_17
REMARK    7  A    between atoms: C_20  and  O_21
REMARK                            x       y       z     vdW  Elec       q    Type
REMARK                         _______ _______ _______ _____ _____    ______ ____
ROOT
ATOM      1  N   UNL     1     -11.921   1.469  17.621  0.00  0.00    +0.000 N 
ATOM      2  C   UNL     1     -12.124   2.388  18.661  0.00  0.00    +0.000 A 
ATOM      3  C   UNL     1     -12.679   1.580  19.631  0.00  0.00    +0.000 A 
ATOM      4  C   UNL     1     -11.727   0.534  19.580  0.00  0.00    +0.000 A 
ATOM      5  C   UNL     1     -11.195  -0.288  20.585  0.00  0.00    +0.000 A 
ATOM      6  C   UNL     1     -10.536  -1.441  20.228  0.00  0.00    +0.000 A 
ATOM      7  C   UNL     1     -10.632  -1.847  18.905  0.00  0.00    +0.000 A 
ATOM      8  C   UNL     1     -10.373  -3.185  18.642  0.00  0.00    +0.000 A 
ATOM      9  N   UNL     1      -9.639  -4.126  19.324  0.00  0.00    +0.000 N 
ATOM     10  C   UNL     1      -9.359  -5.199  18.508  0.00  0.00    +0.000 A 
ATOM     11  C   UNL     1      -8.415  -6.219  18.718  0.00  0.00    +0.000 A 
ATOM     12  C   UNL     1      -8.299  -7.172  17.694  0.00  0.00    +0.000 A 
ATOM     13  C   UNL     1      -9.104  -7.134  16.554  0.00  0.00    +0.000 A 
ATOM     14  C   UNL     1     -10.055  -6.110  16.393  0.00  0.00    +0.000 A 
ATOM     15  C   UNL     1     -10.152  -5.095  17.356  0.00  0.00    +0.000 A 
ATOM     16  C   UNL     1     -10.775  -3.846  17.525  0.00  0.00    +0.000 A 
ATOM     17  C   UNL     1     -11.293  -3.089  16.437  0.00  0.00    +0.000 A 
ATOM     18  C   UNL     1     -11.013  -1.690  16.568  0.00  0.00    +0.000 A 
ATOM     19  C   UNL     1     -11.034  -1.014  17.814  0.00  0.00    +0.000 A 
ATOM     20  C   UNL     1     -11.497   0.274  18.195  0.00  0.00    +0.000 A 
ATOM     21  C   UNL     1     -10.173  -1.483  15.389  0.00  0.00    +0.000 C 
ATOM     22  O   UNL     1      -9.112  -0.884  15.237  0.00  0.00    +0.000 OA
ATOM     23  N   UNL     1     -10.606  -2.453  14.502  0.00  0.00    +0.000 N 
ATOM     24  C   UNL     1     -11.349  -3.452  15.065  0.00  0.00    +0.000 C 
ATOM     25  O   UNL     1     -11.840  -4.389  14.452  0.00  0.00    +0.000 OA
ATOM     26  H   UNL     1     -11.335   3.125  18.789  0.00  0.00    +0.000 HD
ATOM     27  H   UNL     1     -13.737   1.312  19.566  0.00  0.00    +0.000 HD
ATOM     28  H   UNL     1     -11.338  -0.031  21.629  0.00  0.00    +0.000 HD
ATOM     29  H   UNL     1     -10.119  -2.066  21.012  0.00  0.00    +0.000 HD
ATOM     30  H   UNL     1      -9.163  -3.941  20.189  0.00  0.00    +0.000 HD
ATOM     31  H   UNL     1      -7.569  -7.975  17.782  0.00  0.00    +0.000 HD
ATOM     32  H   UNL     1      -8.997  -7.881  15.787  0.00  0.00    +0.000 HD
ATOM     33  H   UNL     1     -10.644  -6.105  15.485  0.00  0.00    +0.000 HD
ATOM     34  H   UNL     1     -10.041  -2.721  13.713  0.00  0.00    +0.000 HD
ENDROOT
BRANCH   1  35
ATOM     35  C   UNL     1     -11.931   1.952  16.263  0.00  0.00    +0.000 C 
ATOM     36  H   UNL     1     -11.226   2.784  16.184  0.00  0.00    +0.000 HD
ATOM     37  H   UNL     1     -12.936   2.210  15.968  0.00  0.00    +0.000 HD
ATOM     38  H   UNL     1     -11.567   1.136  15.614  0.00  0.00    +0.000 HD
ENDBRANCH   1  35
BRANCH  11  39
ATOM     39  C   UNL     1      -7.560  -6.287  19.960  0.00  0.00    +0.000 C 
ATOM     40  H   UNL     1      -7.297  -7.338  20.145  0.00  0.00    +0.000 HD
ATOM     41  H   UNL     1      -8.138  -5.959  20.834  0.00  0.00    +0.000 HD
BRANCH  39  42
ATOM     42  C   UNL     1      -6.279  -5.451  19.851  0.00  0.00    +0.000 C 
ATOM     43  H   UNL     1      -6.202  -4.967  18.873  0.00  0.00    +0.000 HD
ATOM     44  H   UNL     1      -5.415  -6.124  19.921  0.00  0.00    +0.000 HD
BRANCH  42  45
ATOM     45  C   UNL     1      -6.208  -4.395  20.951  0.00  0.00    +0.000 C 
ATOM     46  H   UNL     1      -5.857  -3.466  20.493  0.00  0.00    +0.000 HD
ATOM     47  H   UNL     1      -5.491  -4.692  21.724  0.00  0.00    +0.000 HD
BRANCH  45  48
ATOM     48  N   UNL     1      -7.524  -4.215  21.566  0.00  0.00    +0.000 NA
ATOM     49  H   UNL     1      -7.852  -5.117  21.914  0.00  0.00    +0.000 HD
BRANCH  48  50
ATOM     50  C   UNL     1      -7.481  -3.263  22.686  0.00  0.00    +0.000 C 
ATOM     51  C   UNL     1      -7.611  -1.809  22.199  0.00  0.00    +0.000 C 
ATOM     52  C   UNL     1      -7.749  -0.822  23.351  0.00  0.00    +0.000 C 
ATOM     53  C   UNL     1      -8.907  -1.201  24.264  0.00  0.00    +0.000 C 
ATOM     54  C   UNL     1      -8.734  -2.619  24.802  0.00  0.00    +0.000 C 
ATOM     55  C   UNL     1      -8.610  -3.629  23.666  0.00  0.00    +0.000 C 
ATOM     56  H   UNL     1      -6.529  -3.373  23.221  0.00  0.00    +0.000 HD
ATOM     57  H   UNL     1      -8.480  -1.713  21.535  0.00  0.00    +0.000 HD
ATOM     58  H   UNL     1      -6.730  -1.515  21.615  0.00  0.00    +0.000 HD
ATOM     59  H   UNL     1      -7.893   0.192  22.961  0.00  0.00    +0.000 HD
ATOM     60  H   UNL     1      -6.812  -0.790  23.925  0.00  0.00    +0.000 HD
ATOM     61  H   UNL     1      -9.851  -1.131  23.710  0.00  0.00    +0.000 HD
ATOM     62  H   UNL     1      -9.582  -2.879  25.446  0.00  0.00    +0.000 HD
ATOM     63  H   UNL     1      -7.845  -2.668  25.444  0.00  0.00    +0.000 HD
ATOM     64  H   UNL     1      -9.568  -3.685  23.132  0.00  0.00    +0.000 HD
ATOM     65  H   UNL     1      -8.427  -4.624  24.091  0.00  0.00    +0.000 HD
BRANCH  53  66
ATOM     66  O   UNL     1      -8.983  -0.282  25.347  0.00  0.00    +0.000 OA
ATOM     67  H   UNL     1      -8.288  -0.511  25.987  0.00  0.00    +0.000 HD
ENDBRANCH  53  66
ENDBRANCH  48  50
ENDBRANCH  45  48
ENDBRANCH  42  45
ENDBRANCH  39  42
ENDBRANCH  11  39
TORSDOF 7
ENDMDL
MODEL 9
REMARK VINA RESULT:    -9.676      2.776      4.982
REMARK INTER + INTRA:         -13.592
REMARK INTER:                 -12.069
REMARK INTRA:                  -1.524
REMARK UNBOUND:                -0.522
REMARK  Name = 
REMARK  7 active torsions:
REMARK  status: ('A' for Active; 'I' for Inactive)
REMARK    1  A    between atoms: C_1  and  N_2
REMARK    2  A    between atoms: C_12  and  C_13
REMARK    3  A    between atoms: C_13  and  C_14
REMARK    4  A    between atoms: C_14  and  C_15
REMARK    5  A    between atoms: C_15  and  N_16
REMARK    6  A    between atoms: N_16  and  C_17
REMARK    7  A    between atoms: C_20  and  O_21
REMARK                            x       y       z     vdW  Elec       q    Type
REMARK                         _______ _______ _______ _____ _____    ______ ____
ROOT
ATOM      1  N   UNL     1      -9.870   0.847  23.161  0.00  0.00    +0.000 N 
ATOM      2  C   UNL     1     -10.780   1.885  22.907  0.00  0.00    +0.000 A 
ATOM      3  C   UNL     1     -10.676   2.006  21.538  0.00  0.00    +0.000 A 
ATOM      4  C   UNL     1     -10.818   0.636  21.211  0.00  0.00    +0.000 A 
ATOM      5  C   UNL     1     -11.440   0.001  20.126  0.00  0.00    +0.000 A 
ATOM      6  C   UNL     1     -11.155  -1.320  19.869  0.00  0.00    +0.000 A 
ATOM      7  C   UNL     1     -10.092  -1.887  20.558  0.00  0.00    +0.000 A 
ATOM      8  C   UNL     1      -9.525  -3.025  20.002  0.00  0.00    +0.000 A 
ATOM      9  N   UNL     1     -10.027  -3.970  19.138  0.00  0.00    +0.000 N 
ATOM     10  C   UNL     1      -9.241  -5.101  19.156  0.00  0.00    +0.000 A 
ATOM     11  C   UNL     1      -9.551  -6.375  18.651  0.00  0.00    +0.000 A 
ATOM     12  C   UNL     1      -8.581  -7.369  18.846  0.00  0.00    +0.000 A 
ATOM     13  C   UNL     1      -7.359  -7.099  19.467  0.00  0.00    +0.000 A 
ATOM     14  C   UNL     1      -7.076  -5.803  19.935  0.00  0.00    +0.000 A 
ATOM     15  C   UNL     1      -8.048  -4.798  19.829  0.00  0.00    +0.000 A 
ATOM     16  C   UNL     1      -8.282  -3.491  20.293  0.00  0.00    +0.000 A 
ATOM     17  C   UNL     1      -7.588  -2.931  21.402  0.00  0.00    +0.000 A 
ATOM     18  C   UNL     1      -8.453  -2.165  22.250  0.00  0.00    +0.000 A 
ATOM     19  C   UNL     1      -9.506  -1.359  21.751  0.00  0.00    +0.000 A 
ATOM     20  C   UNL     1      -9.993  -0.079  22.129  0.00  0.00    +0.000 A 
ATOM     21  C   UNL     1      -8.355  -2.941  23.486  0.00  0.00    +0.000 C 
ATOM     22  O   UNL     1      -9.210  -3.328  24.278  0.00  0.00    +0.000 OA
ATOM     23  N   UNL     1      -7.102  -3.525  23.410  0.00  0.00    +0.000 N 
ATOM     24  C   UNL     1      -6.540  -3.511  22.164  0.00  0.00    +0.000 C 
ATOM     25  O   UNL     1      -5.436  -3.958  21.891  0.00  0.00    +0.000 OA
ATOM     26  H   UNL     1     -11.691   1.856  23.499  0.00  0.00    +0.000 HD
ATOM     27  H   UNL     1      -9.829   2.549  21.109  0.00  0.00    +0.000 HD
ATOM     28  H   UNL     1     -12.109   0.559  19.479  0.00  0.00    +0.000 HD
ATOM     29  H   UNL     1     -11.648  -1.806  19.034  0.00  0.00    +0.000 HD
ATOM     30  H   UNL     1     -10.956  -3.941  18.761  0.00  0.00    +0.000 HD
ATOM     31  H   UNL     1      -8.768  -8.385  18.502  0.00  0.00    +0.000 HD
ATOM     32  H   UNL     1      -6.630  -7.879  19.598  0.00  0.00    +0.000 HD
ATOM     33  H   UNL     1      -6.127  -5.641  20.430  0.00  0.00    +0.000 HD
ATOM     34  H   UNL     1      -6.864  -4.315  23.986  0.00  0.00    +0.000 HD
ENDROOT
BRANCH   1  35
ATOM     35  C   UNL     1      -9.223   0.797  24.448  0.00  0.00    +0.000 C 
ATOM     36  H   UNL     1      -9.708   1.520  25.110  0.00  0.00    +0.000 HD
ATOM     37  H   UNL     1      -8.162   0.960  24.337  0.00  0.00    +0.000 HD
ATOM     38  H   UNL     1      -9.387  -0.211  24.866  0.00  0.00    +0.000 HD
ENDBRANCH   1  35
BRANCH  11  39
ATOM     39  C   UNL     1     -10.856  -6.673  17.953  0.00  0.00    +0.000 C 
ATOM     40  H   UNL     1     -11.627  -6.000  18.353  0.00  0.00    +0.000 HD
ATOM     41  H   UNL     1     -11.187  -7.692  18.191  0.00  0.00    +0.000 HD
BRANCH  39  42
ATOM     42  C   UNL     1     -10.772  -6.506  16.430  0.00  0.00    +0.000 C 
ATOM     43  H   UNL     1     -11.286  -7.322  15.912  0.00  0.00    +0.000 HD
ATOM     44  H   UNL     1      -9.719  -6.575  16.128  0.00  0.00    +0.000 HD
BRANCH  42  45
ATOM     45  C   UNL     1     -11.356  -5.168  15.983  0.00  0.00    +0.000 C 
ATOM     46  H   UNL     1     -12.115  -4.880  16.716  0.00  0.00    +0.000 HD
ATOM     47  H   UNL     1     -11.840  -5.268  15.006  0.00  0.00    +0.000 HD
BRANCH  45  48
ATOM     48  N   UNL     1     -10.300  -4.159  15.892  0.00  0.00    +0.000 NA
ATOM     49  H   UNL     1      -9.688  -4.391  15.108  0.00  0.00    +0.000 HD
BRANCH  48  50
ATOM     50  C   UNL     1     -10.846  -2.810  15.683  0.00  0.00    +0.000 C 
ATOM     51  C   UNL     1     -11.053  -2.506  14.189  0.00  0.00    +0.000 C 
ATOM     52  C   UNL     1     -11.781  -1.188  13.961  0.00  0.00    +0.000 C 
ATOM     53  C   UNL     1     -13.102  -1.152  14.717  0.00  0.00    +0.000 C 
ATOM     54  C   UNL     1     -12.881  -1.381  16.209  0.00  0.00    +0.000 C 
ATOM     55  C   UNL     1     -12.167  -2.704  16.465  0.00  0.00    +0.000 C 
ATOM     56  H   UNL     1     -10.152  -2.069  16.102  0.00  0.00    +0.000 HD
ATOM     57  H   UNL     1     -11.620  -3.320  13.718  0.00  0.00    +0.000 HD
ATOM     58  H   UNL     1     -10.089  -2.447  13.668  0.00  0.00    +0.000 HD
ATOM     59  H   UNL     1     -11.955  -1.038  12.889  0.00  0.00    +0.000 HD
ATOM     60  H   UNL     1     -11.142  -0.353  14.279  0.00  0.00    +0.000 HD
ATOM     61  H   UNL     1     -13.773  -1.924  14.322  0.00  0.00    +0.000 HD
ATOM     62  H   UNL     1     -13.842  -1.363  16.735  0.00  0.00    +0.000 HD
ATOM     63  H   UNL     1     -12.295  -0.553  16.630  0.00  0.00    +0.000 HD
ATOM     64  H   UNL     1     -12.836  -3.530  16.187  0.00  0.00    +0.000 HD
ATOM     65  H   UNL     1     -11.973  -2.803  17.541  0.00  0.00    +0.000 HD
BRANCH  53  66
ATOM     66  O   UNL     1     -13.736   0.104  14.511  0.00  0.00    +0.000 OA
ATOM     67  H   UNL     1     -13.405   0.723  15.184  0.00  0.00    +0.000 HD
ENDBRANCH  53  66
ENDBRANCH  48  50
ENDBRANCH  45  48
ENDBRANCH  42  45
ENDBRANCH  39  42
ENDBRANCH  11  39
TORSDOF 7
ENDMDL
