MODEL 1
REMARK VINA RESULT:    -7.645      0.000      0.000
REMARK INTER + INTRA:         -10.550
REMARK INTER:                 -10.327
REMARK INTRA:                  -0.223
REMARK UNBOUND:                -0.223
REMARK  Name = 
REMARK  8 active torsions:
REMARK  status: ('A' for Active; 'I' for Inactive)
REMARK    1  A    between atoms: C_1  and  N_2
REMARK    2  A    between atoms: N_2  and  C_3
REMARK    3  A    between atoms: C_3  and  N_5
REMARK    4  A    between atoms: N_5  and  C_6
REMARK    5  A    between atoms: N_5  and  C_7
REMARK    6  A    between atoms: C_11  and  C_12
REMARK    7  A    between atoms: C_13  and  O_14
REMARK    8  A    between atoms: O_14  and  C_15
REMARK                            x       y       z     vdW  Elec       q    Type
REMARK                         _______ _______ _______ _____ _____    ______ ____
ROOT
ATOM      1  C   UNL     1     -11.211  -2.673  14.173  0.00  0.00    +0.000 C 
ATOM      2  C   UNL     1     -12.123  -3.971  14.391  0.00  0.00    +0.000 C 
ATOM      3  C   UNL     1     -12.180  -4.380  15.972  0.00  0.00    +0.000 C 
ATOM      4  O   UNL     1     -12.166  -2.988  16.542  0.00  0.00    +0.000 OA
ATOM      5  C   UNL     1     -10.825  -2.439  16.527  0.00  0.00    +0.000 C 
ATOM      6  C   UNL     1     -10.059  -2.867  15.186  0.00  0.00    +0.000 C 
ATOM      7  N   UNL     1     -10.426  -2.820  17.823  0.00  0.00    +0.000 N 
ATOM      8  C   UNL     1     -10.519  -2.318  19.104  0.00  0.00    +0.000 A 
ATOM      9  C   UNL     1     -11.494  -1.453  19.646  0.00  0.00    +0.000 A 
ATOM     10  C   UNL     1     -11.441  -1.220  21.015  0.00  0.00    +0.000 A 
ATOM     11  C   UNL     1     -10.425  -1.780  21.810  0.00  0.00    +0.000 A 
ATOM     12  C   UNL     1      -9.469  -2.638  21.263  0.00  0.00    +0.000 A 
ATOM     13  C   UNL     1      -9.486  -2.949  19.919  0.00  0.00    +0.000 A 
ATOM     14  C   UNL     1      -8.791  -3.866  19.032  0.00  0.00    +0.000 A 
ATOM     15  C   UNL     1      -8.073  -4.950  19.560  0.00  0.00    +0.000 A 
ATOM     16  C   UNL     1      -8.727  -6.186  19.454  0.00  0.00    +0.000 A 
ATOM     17  C   UNL     1      -9.793  -6.139  18.516  0.00  0.00    +0.000 A 
ATOM     18  C   UNL     1      -9.700  -6.961  17.390  0.00  0.00    +0.000 A 
ATOM     19  C   UNL     1      -8.744  -7.858  16.922  0.00  0.00    +0.000 A 
ATOM     20  C   UNL     1      -9.278  -9.102  16.823  0.00  0.00    +0.000 A 
ATOM     21  C   UNL     1     -10.681  -9.219  16.753  0.00  0.00    +0.000 A 
ATOM     22  C   UNL     1     -11.552  -8.077  16.540  0.00  0.00    +0.000 A 
ATOM     23  C   UNL     1     -10.971  -6.795  16.702  0.00  0.00    +0.000 A 
ATOM     24  N   UNL     1     -11.287  -5.365  16.732  0.00  0.00    +0.000 N 
ATOM     25  C   UNL     1     -10.449  -5.114  17.829  0.00  0.00    +0.000 A 
ATOM     26  C   UNL     1      -9.785  -3.929  18.072  0.00  0.00    +0.000 A 
ATOM     27  C   UNL     1      -7.829  -7.219  19.867  0.00  0.00    +0.000 C 
ATOM     28  O   UNL     1      -7.979  -8.358  20.280  0.00  0.00    +0.000 OA
ATOM     29  N   UNL     1      -6.588  -6.592  19.769  0.00  0.00    +0.000 N 
ATOM     30  C   UNL     1      -6.642  -5.212  19.338  0.00  0.00    +0.000 C 
ATOM     31  H   UNL     1     -11.827  -1.821  14.490  0.00  0.00    +0.000 HD
ATOM     32  H   UNL     1     -13.138  -3.633  14.118  0.00  0.00    +0.000 HD
ATOM     33  H   UNL     1     -11.888  -4.810  13.734  0.00  0.00    +0.000 HD
ATOM     34  H   UNL     1     -13.188  -4.768  16.168  0.00  0.00    +0.000 HD
ATOM     35  H   UNL     1      -9.193  -2.227  15.000  0.00  0.00    +0.000 HD
ATOM     36  H   UNL     1     -12.315  -1.072  19.034  0.00  0.00    +0.000 HD
ATOM     37  H   UNL     1     -12.208  -0.578  21.461  0.00  0.00    +0.000 HD
ATOM     38  H   UNL     1     -10.437  -1.574  22.868  0.00  0.00    +0.000 HD
ATOM     39  H   UNL     1      -8.740  -3.114  21.930  0.00  0.00    +0.000 HD
ATOM     40  H   UNL     1      -7.682  -7.705  17.083  0.00  0.00    +0.000 HD
ATOM     41  H   UNL     1      -8.614  -9.951  16.957  0.00  0.00    +0.000 HD
ATOM     42  H   UNL     1     -11.084 -10.213  16.948  0.00  0.00    +0.000 HD
ATOM     43  H   UNL     1     -12.622  -8.240  16.514  0.00  0.00    +0.000 HD
ATOM     44  H   UNL     1      -5.754  -7.084  20.046  0.00  0.00    +0.000 HD
ATOM     45  H   UNL     1      -5.951  -4.567  19.867  0.00  0.00    +0.000 HD
ATOM     46  H   UNL     1      -6.445  -5.209  18.250  0.00  0.00    +0.000 HD
ENDROOT
BRANCH   5  47
ATOM     47  C   UNL     1     -10.548  -0.899  16.579  0.00  0.00    +0.000 C 
ATOM     48  H   UNL     1     -11.403  -0.272  16.352  0.00  0.00    +0.000 HD
ATOM     49  H   UNL     1     -10.168  -0.631  17.586  0.00  0.00    +0.000 HD
ATOM     50  H   UNL     1      -9.703  -0.580  15.959  0.00  0.00    +0.000 HD
ENDBRANCH   5  47
BRANCH   1  51
ATOM     51  N   UNL     1     -10.736  -2.216  12.830  0.00  0.00    +0.000 N 
BRANCH  51  52
ATOM     52  C   UNL     1     -10.107  -0.900  12.785  0.00  0.00    +0.000 C 
ATOM     53  H   UNL     1      -9.151  -0.972  12.280  0.00  0.00    +0.000 HD
ATOM     54  H   UNL     1      -9.978  -0.496  13.792  0.00  0.00    +0.000 HD
ATOM     55  H   UNL     1     -10.749  -0.213  12.218  0.00  0.00    +0.000 HD
ENDBRANCH  51  52
BRANCH  51  56
ATOM     56  C   UNL     1     -11.560  -2.554  11.737  0.00  0.00    +0.000 C 
ATOM     57  S   UNL     1     -13.017  -1.825  11.315  0.00  0.00    +0.000 S 
BRANCH  56  58
ATOM     58  N   UNL     1     -11.159  -3.599  10.942  0.00  0.00    +0.000 N 
ATOM     59  H   UNL     1     -10.743  -4.347  11.497  0.00  0.00    +0.000 HD
BRANCH  58  60
ATOM     60  C   UNL     1     -11.925  -4.056   9.802  0.00  0.00    +0.000 C 
ATOM     61  H   UNL     1     -11.836  -5.139   9.681  0.00  0.00    +0.000 HD
ATOM     62  H   UNL     1     -12.970  -3.779   9.953  0.00  0.00    +0.000 HD
ATOM     63  H   UNL     1     -11.535  -3.565   8.906  0.00  0.00    +0.000 HD
ENDBRANCH  58  60
ENDBRANCH  56  58
ENDBRANCH  51  56
ENDBRANCH   1  51
BRANCH   6  64
ATOM     64  O   UNL     1      -9.667  -4.222  14.914  0.00  0.00    +0.000 OA
BRANCH  64  65
ATOM     65  C   UNL     1      -8.887  -4.465  13.772  0.00  0.00    +0.000 C 
ATOM     66  H   UNL     1      -9.518  -4.406  12.904  0.00  0.00    +0.000 HD
ATOM     67  H   UNL     1      -8.165  -3.654  13.657  0.00  0.00    +0.000 HD
ATOM     68  H   UNL     1      -8.409  -5.441  13.772  0.00  0.00    +0.000 HD
ENDBRANCH  64  65
ENDBRANCH   6  64
TORSDOF 8
ENDMDL
MODEL 2
REMARK VINA RESULT:    -7.051      1.244      1.415
REMARK INTER + INTRA:          -9.748
REMARK INTER:                  -9.589
REMARK INTRA:                  -0.159
REMARK UNBOUND:                -0.223
REMARK  Name = 
REMARK  8 active torsions:
REMARK  status: ('A' for Active; 'I' for Inactive)
REMARK    1  A    between atoms: C_1  and  N_2
REMARK    2  A    between atoms: N_2  and  C_3
REMARK    3  A    between atoms: C_3  and  N_5
REMARK    4  A    between atoms: N_5  and  C_6
REMARK    5  A    between atoms: N_5  and  C_7
REMARK    6  A    between atoms: C_11  and  C_12
REMARK    7  A    between atoms: C_13  and  O_14
REMARK    8  A    between atoms: O_14  and  C_15
REMARK                            x       y       z     vdW  Elec       q    Type
REMARK                         _______ _______ _______ _____ _____    ______ ____
ROOT
ATOM      1  C   UNL     1     -11.335  -1.322  15.406  0.00  0.00    +0.000 C 
ATOM      2  C   UNL     1     -12.265  -2.625  15.444  0.00  0.00    +0.000 C 
ATOM      3  C   UNL     1     -12.207  -3.335  16.914  0.00  0.00    +0.000 C 
ATOM      4  O   UNL     1     -12.106  -2.082  17.740  0.00  0.00    +0.000 OA
ATOM      5  C   UNL     1     -10.755  -1.559  17.719  0.00  0.00    +0.000 C 
ATOM      6  C   UNL     1     -10.112  -1.726  16.261  0.00  0.00    +0.000 C 
ATOM      7  N   UNL     1     -10.264  -2.192  18.878  0.00  0.00    +0.000 N 
ATOM      8  C   UNL     1     -10.239  -1.949  20.236  0.00  0.00    +0.000 A 
ATOM      9  C   UNL     1     -11.142  -1.195  21.015  0.00  0.00    +0.000 A 
ATOM     10  C   UNL     1     -10.972  -1.236  22.394  0.00  0.00    +0.000 A 
ATOM     11  C   UNL     1      -9.912  -1.954  22.977  0.00  0.00    +0.000 A 
ATOM     12  C   UNL     1      -9.029  -2.701  22.194  0.00  0.00    +0.000 A 
ATOM     13  C   UNL     1      -9.164  -2.742  20.822  0.00  0.00    +0.000 A 
ATOM     14  C   UNL     1      -8.570  -3.477  19.719  0.00  0.00    +0.000 A 
ATOM     15  C   UNL     1      -7.844  -4.653  19.963  0.00  0.00    +0.000 A 
ATOM     16  C   UNL     1      -8.541  -5.835  19.674  0.00  0.00    +0.000 A 
ATOM     17  C   UNL     1      -9.676  -5.591  18.857  0.00  0.00    +0.000 A 
ATOM     18  C   UNL     1      -9.698  -6.176  17.589  0.00  0.00    +0.000 A 
ATOM     19  C   UNL     1      -8.810  -6.978  16.876  0.00  0.00    +0.000 A 
ATOM     20  C   UNL     1      -9.386  -8.171  16.583  0.00  0.00    +0.000 A 
ATOM     21  C   UNL     1     -10.794  -8.253  16.611  0.00  0.00    +0.000 A 
ATOM     22  C   UNL     1     -11.645  -7.080  16.698  0.00  0.00    +0.000 A 
ATOM     23  C   UNL     1     -11.015  -5.862  17.056  0.00  0.00    +0.000 A 
ATOM     24  N   UNL     1     -11.285  -4.462  17.391  0.00  0.00    +0.000 N 
ATOM     25  C   UNL     1     -10.355  -4.442  18.441  0.00  0.00    +0.000 A 
ATOM     26  C   UNL     1      -9.639  -3.336  18.852  0.00  0.00    +0.000 A 
ATOM     27  C   UNL     1      -7.643  -6.940  19.801  0.00  0.00    +0.000 C 
ATOM     28  O   UNL     1      -7.793  -8.137  19.996  0.00  0.00    +0.000 OA
ATOM     29  N   UNL     1      -6.396  -6.323  19.722  0.00  0.00    +0.000 N 
ATOM     30  C   UNL     1      -6.443  -4.885  19.574  0.00  0.00    +0.000 C 
ATOM     31  H   UNL     1     -11.898  -0.540  15.934  0.00  0.00    +0.000 HD
ATOM     32  H   UNL     1     -13.288  -2.226  15.329  0.00  0.00    +0.000 HD
ATOM     33  H   UNL     1     -12.108  -3.322  14.619  0.00  0.00    +0.000 HD
ATOM     34  H   UNL     1     -13.206  -3.741  17.115  0.00  0.00    +0.000 HD
ATOM     35  H   UNL     1      -9.245  -1.074  16.130  0.00  0.00    +0.000 HD
ATOM     36  H   UNL     1     -11.997  -0.691  20.561  0.00  0.00    +0.000 HD
ATOM     37  H   UNL     1     -11.681  -0.683  23.020  0.00  0.00    +0.000 HD
ATOM     38  H   UNL     1      -9.833  -1.960  24.052  0.00  0.00    +0.000 HD
ATOM     39  H   UNL     1      -8.264  -3.308  22.692  0.00  0.00    +0.000 HD
ATOM     40  H   UNL     1      -7.734  -6.873  16.974  0.00  0.00    +0.000 HD
ATOM     41  H   UNL     1      -8.740  -9.038  16.493  0.00  0.00    +0.000 HD
ATOM     42  H   UNL     1     -11.209  -9.260  16.642  0.00  0.00    +0.000 HD
ATOM     43  H   UNL     1     -12.717  -7.221  16.731  0.00  0.00    +0.000 HD
ATOM     44  H   UNL     1      -5.557  -6.871  19.827  0.00  0.00    +0.000 HD
ATOM     45  H   UNL     1      -5.694  -4.365  20.158  0.00  0.00    +0.000 HD
ATOM     46  H   UNL     1      -6.335  -4.671  18.494  0.00  0.00    +0.000 HD
ENDROOT
BRANCH   5  47
ATOM     47  C   UNL     1     -10.429  -0.063  18.046  0.00  0.00    +0.000 C 
ATOM     48  H   UNL     1     -11.046   0.382  18.819  0.00  0.00    +0.000 HD
ATOM     49  H   UNL     1      -9.364   0.020  18.348  0.00  0.00    +0.000 HD
ATOM     50  H   UNL     1     -10.435   0.593  17.168  0.00  0.00    +0.000 HD
ENDBRANCH   5  47
BRANCH   1  51
ATOM     51  N   UNL     1     -10.956  -0.616  14.143  0.00  0.00    +0.000 N 
BRANCH  51  52
ATOM     52  C   UNL     1     -10.219   0.633  14.300  0.00  0.00    +0.000 C 
ATOM     53  H   UNL     1     -10.278   0.961  15.331  0.00  0.00    +0.000 HD
ATOM     54  H   UNL     1     -10.611   1.402  13.631  0.00  0.00    +0.000 HD
ATOM     55  H   UNL     1      -9.164   0.463  14.048  0.00  0.00    +0.000 HD
ENDBRANCH  51  52
BRANCH  51  56
ATOM     56  C   UNL     1     -11.911  -0.654  13.105  0.00  0.00    +0.000 C 
ATOM     57  S   UNL     1     -13.357   0.206  13.041  0.00  0.00    +0.000 S 
BRANCH  56  58
ATOM     58  N   UNL     1     -11.662  -1.491  12.046  0.00  0.00    +0.000 N 
ATOM     59  H   UNL     1     -10.672  -1.729  11.987  0.00  0.00    +0.000 HD
BRANCH  58  60
ATOM     60  C   UNL     1     -12.557  -2.564  11.668  0.00  0.00    +0.000 C 
ATOM     61  H   UNL     1     -13.489  -2.513  12.235  0.00  0.00    +0.000 HD
ATOM     62  H   UNL     1     -12.761  -2.485  10.599  0.00  0.00    +0.000 HD
ATOM     63  H   UNL     1     -12.063  -3.517  11.883  0.00  0.00    +0.000 HD
ENDBRANCH  58  60
ENDBRANCH  56  58
ENDBRANCH  51  56
ENDBRANCH   1  51
BRANCH   6  64
ATOM     64  O   UNL     1      -9.783  -3.006  15.699  0.00  0.00    +0.000 OA
BRANCH  64  65
ATOM     65  C   UNL     1      -9.213  -3.036  14.416  0.00  0.00    +0.000 C 
ATOM     66  H   UNL     1      -8.904  -2.040  14.152  0.00  0.00    +0.000 HD
ATOM     67  H   UNL     1      -8.291  -3.620  14.452  0.00  0.00    +0.000 HD
ATOM     68  H   UNL     1      -9.892  -3.390  13.646  0.00  0.00    +0.000 HD
ENDBRANCH  64  65
ENDBRANCH   6  64
TORSDOF 8
ENDMDL
MODEL 3
REMARK VINA RESULT:    -6.900      5.674      9.399
REMARK INTER + INTRA:          -9.542
REMARK INTER:                  -8.912
REMARK INTRA:                  -0.631
REMARK UNBOUND:                -0.223
REMARK  Name = 
REMARK  8 active torsions:
REMARK  status: ('A' for Active; 'I' for Inactive)
REMARK    1  A    between atoms: C_1  and  N_2
REMARK    2  A    between atoms: N_2  and  C_3
REMARK    3  A    between atoms: C_3  and  N_5
REMARK    4  A    between atoms: N_5  and  C_6
REMARK    5  A    between atoms: N_5  and  C_7
REMARK    6  A    between atoms: C_11  and  C_12
REMARK    7  A    between atoms: C_13  and  O_14
REMARK    8  A    between atoms: O_14  and  C_15
REMARK                            x       y       z     vdW  Elec       q    Type
REMARK                         _______ _______ _______ _____ _____    ______ ____
ROOT
ATOM      1  C   UNL     1     -12.571   4.111  22.615  0.00  0.00    +0.000 C 
ATOM      2  C   UNL     1     -11.509   3.716  23.747  0.00  0.00    +0.000 C 
ATOM      3  C   UNL     1     -10.194   3.008  23.085  0.00  0.00    +0.000 C 
ATOM      4  O   UNL     1     -10.140   3.821  21.821  0.00  0.00    +0.000 OA
ATOM      5  C   UNL     1     -11.121   3.351  20.864  0.00  0.00    +0.000 C 
ATOM      6  C   UNL     1     -12.479   2.941  21.610  0.00  0.00    +0.000 C 
ATOM      7  N   UNL     1     -10.306   2.451  20.150  0.00  0.00    +0.000 N 
ATOM      8  C   UNL     1      -9.427   2.498  19.088  0.00  0.00    +0.000 A 
ATOM      9  C   UNL     1      -8.647   3.583  18.634  0.00  0.00    +0.000 A 
ATOM     10  C   UNL     1      -7.723   3.320  17.630  0.00  0.00    +0.000 A 
ATOM     11  C   UNL     1      -7.615   2.040  17.057  0.00  0.00    +0.000 A 
ATOM     12  C   UNL     1      -8.389   0.973  17.519  0.00  0.00    +0.000 A 
ATOM     13  C   UNL     1      -9.296   1.151  18.544  0.00  0.00    +0.000 A 
ATOM     14  C   UNL     1     -10.146   0.308  19.367  0.00  0.00    +0.000 A 
ATOM     15  C   UNL     1      -9.916  -1.074  19.434  0.00  0.00    +0.000 A 
ATOM     16  C   UNL     1      -9.271  -1.498  20.605  0.00  0.00    +0.000 A 
ATOM     17  C   UNL     1      -9.321  -0.509  21.623  0.00  0.00    +0.000 A 
ATOM     18  C   UNL     1     -10.002  -0.827  22.801  0.00  0.00    +0.000 A 
ATOM     19  C   UNL     1     -10.707  -1.944  23.241  0.00  0.00    +0.000 A 
ATOM     20  C   UNL     1     -10.129  -2.454  24.358  0.00  0.00    +0.000 A 
ATOM     21  C   UNL     1      -9.284  -1.612  25.111  0.00  0.00    +0.000 A 
ATOM     22  C   UNL     1      -9.201  -0.181  24.884  0.00  0.00    +0.000 A 
ATOM     23  C   UNL     1      -9.772   0.307  23.682  0.00  0.00    +0.000 A 
ATOM     24  N   UNL     1      -9.925   1.515  22.868  0.00  0.00    +0.000 N 
ATOM     25  C   UNL     1      -9.692   0.838  21.662  0.00  0.00    +0.000 A 
ATOM     26  C   UNL     1     -10.229   1.181  20.438  0.00  0.00    +0.000 A 
ATOM     27  C   UNL     1      -9.251  -2.928  20.627  0.00  0.00    +0.000 C 
ATOM     28  O   UNL     1      -8.556  -3.758  21.193  0.00  0.00    +0.000 OA
ATOM     29  N   UNL     1     -10.252  -3.255  19.715  0.00  0.00    +0.000 N 
ATOM     30  C   UNL     1     -10.897  -2.118  19.094  0.00  0.00    +0.000 C 
ATOM     31  H   UNL     1     -12.176   5.020  22.142  0.00  0.00    +0.000 HD
ATOM     32  H   UNL     1     -11.173   4.688  24.149  0.00  0.00    +0.000 HD
ATOM     33  H   UNL     1     -11.925   3.159  24.588  0.00  0.00    +0.000 HD
ATOM     34  H   UNL     1      -9.325   3.325  23.677  0.00  0.00    +0.000 HD
ATOM     35  H   UNL     1     -13.318   2.890  20.911  0.00  0.00    +0.000 HD
ATOM     36  H   UNL     1      -8.693   4.557  19.125  0.00  0.00    +0.000 HD
ATOM     37  H   UNL     1      -7.085   4.140  17.285  0.00  0.00    +0.000 HD
ATOM     38  H   UNL     1      -6.875   1.888  16.288  0.00  0.00    +0.000 HD
ATOM     39  H   UNL     1      -8.220  -0.026  17.099  0.00  0.00    +0.000 HD
ATOM     40  H   UNL     1     -11.283  -2.566  22.562  0.00  0.00    +0.000 HD
ATOM     41  H   UNL     1     -10.219  -3.521  24.533  0.00  0.00    +0.000 HD
ATOM     42  H   UNL     1      -8.632  -2.113  25.827  0.00  0.00    +0.000 HD
ATOM     43  H   UNL     1      -8.518   0.400  25.490  0.00  0.00    +0.000 HD
ATOM     44  H   UNL     1     -10.434  -4.220  19.493  0.00  0.00    +0.000 HD
ATOM     45  H   UNL     1     -11.097  -2.258  18.039  0.00  0.00    +0.000 HD
ATOM     46  H   UNL     1     -11.827  -1.929  19.661  0.00  0.00    +0.000 HD
ENDROOT
BRANCH   5  47
ATOM     47  C   UNL     1     -11.653   4.249  19.698  0.00  0.00    +0.000 C 
ATOM     48  H   UNL     1     -12.512   4.861  19.946  0.00  0.00    +0.000 HD
ATOM     49  H   UNL     1     -10.835   4.911  19.345  0.00  0.00    +0.000 HD
ATOM     50  H   UNL     1     -11.868   3.696  18.776  0.00  0.00    +0.000 HD
ENDBRANCH   5  47
BRANCH   1  51
ATOM     51  N   UNL     1     -13.979   4.516  22.912  0.00  0.00    +0.000 N 
BRANCH  51  52
ATOM     52  C   UNL     1     -14.758   5.010  21.782  0.00  0.00    +0.000 C 
ATOM     53  H   UNL     1     -14.937   6.072  21.901  0.00  0.00    +0.000 HD
ATOM     54  H   UNL     1     -15.704   4.470  21.695  0.00  0.00    +0.000 HD
ATOM     55  H   UNL     1     -14.188   4.855  20.856  0.00  0.00    +0.000 HD
ENDBRANCH  51  52
BRANCH  51  56
ATOM     56  C   UNL     1     -14.187   5.164  24.147  0.00  0.00    +0.000 C 
ATOM     57  S   UNL     1     -13.343   6.497  24.735  0.00  0.00    +0.000 S 
BRANCH  56  58
ATOM     58  N   UNL     1     -15.155   4.653  24.975  0.00  0.00    +0.000 N 
ATOM     59  H   UNL     1     -14.745   4.242  25.814  0.00  0.00    +0.000 HD
BRANCH  58  60
ATOM     60  C   UNL     1     -16.428   5.308  25.192  0.00  0.00    +0.000 C 
ATOM     61  H   UNL     1     -17.255   4.673  24.866  0.00  0.00    +0.000 HD
ATOM     62  H   UNL     1     -16.524   5.536  26.255  0.00  0.00    +0.000 HD
ATOM     63  H   UNL     1     -16.441   6.235  24.611  0.00  0.00    +0.000 HD
ENDBRANCH  58  60
ENDBRANCH  56  58
ENDBRANCH  51  56
ENDBRANCH   1  51
BRANCH   6  64
ATOM     64  O   UNL     1     -12.572   1.806  22.485  0.00  0.00    +0.000 OA
BRANCH  64  65
ATOM     65  C   UNL     1     -13.315   0.697  22.050  0.00  0.00    +0.000 C 
ATOM     66  H   UNL     1     -12.814   0.254  21.208  0.00  0.00    +0.000 HD
ATOM     67  H   UNL     1     -13.297  -0.069  22.829  0.00  0.00    +0.000 HD
ATOM     68  H   UNL     1     -14.328   0.945  21.744  0.00  0.00    +0.000 HD
ENDBRANCH  64  65
ENDBRANCH   6  64
TORSDOF 8
ENDMDL
MODEL 4
REMARK VINA RESULT:    -6.716      2.491      5.685
REMARK INTER + INTRA:          -9.294
REMARK INTER:                  -8.120
REMARK INTRA:                  -1.174
REMARK UNBOUND:                -0.223
REMARK  Name = 
REMARK  8 active torsions:
REMARK  status: ('A' for Active; 'I' for Inactive)
REMARK    1  A    between atoms: C_1  and  N_2
REMARK    2  A    between atoms: N_2  and  C_3
REMARK    3  A    between atoms: C_3  and  N_5
REMARK    4  A    between atoms: N_5  and  C_6
REMARK    5  A    between atoms: N_5  and  C_7
REMARK    6  A    between atoms: C_11  and  C_12
REMARK    7  A    between atoms: C_13  and  O_14
REMARK    8  A    between atoms: O_14  and  C_15
REMARK                            x       y       z     vdW  Elec       q    Type
REMARK                         _______ _______ _______ _____ _____    ______ ____
ROOT
ATOM      1  C   UNL     1     -11.544  -1.381  12.873  0.00  0.00    +0.000 C 
ATOM      2  C   UNL     1     -10.279  -0.490  13.283  0.00  0.00    +0.000 C 
ATOM      3  C   UNL     1      -9.425  -1.210  14.476  0.00  0.00    +0.000 C 
ATOM      4  O   UNL     1      -9.618  -2.634  14.032  0.00  0.00    +0.000 OA
ATOM      5  C   UNL     1     -10.931  -3.118  14.408  0.00  0.00    +0.000 C 
ATOM      6  C   UNL     1     -12.028  -1.964  14.222  0.00  0.00    +0.000 C 
ATOM      7  N   UNL     1     -10.596  -3.699  15.646  0.00  0.00    +0.000 N 
ATOM      8  C   UNL     1     -10.119  -4.910  16.106  0.00  0.00    +0.000 A 
ATOM      9  C   UNL     1      -9.322  -5.859  15.430  0.00  0.00    +0.000 A 
ATOM     10  C   UNL     1      -8.849  -6.932  16.177  0.00  0.00    +0.000 A 
ATOM     11  C   UNL     1      -9.200  -7.087  17.531  0.00  0.00    +0.000 A 
ATOM     12  C   UNL     1      -9.984  -6.138  18.188  0.00  0.00    +0.000 A 
ATOM     13  C   UNL     1     -10.453  -5.025  17.521  0.00  0.00    +0.000 A 
ATOM     14  C   UNL     1     -11.144  -3.794  17.865  0.00  0.00    +0.000 A 
ATOM     15  C   UNL     1     -11.195  -3.362  19.199  0.00  0.00    +0.000 A 
ATOM     16  C   UNL     1     -10.307  -2.321  19.505  0.00  0.00    +0.000 A 
ATOM     17  C   UNL     1      -9.820  -1.682  18.335  0.00  0.00    +0.000 A 
ATOM     18  C   UNL     1     -10.132  -0.332  18.157  0.00  0.00    +0.000 A 
ATOM     19  C   UNL     1     -10.871   0.596  18.887  0.00  0.00    +0.000 A 
ATOM     20  C   UNL     1     -10.080   1.632  19.267  0.00  0.00    +0.000 A 
ATOM     21  C   UNL     1      -8.882   1.848  18.554  0.00  0.00    +0.000 A 
ATOM     22  C   UNL     1      -8.583   1.175  17.302  0.00  0.00    +0.000 A 
ATOM     23  C   UNL     1      -9.400   0.067  16.966  0.00  0.00    +0.000 A 
ATOM     24  N   UNL     1      -9.556  -1.015  15.990  0.00  0.00    +0.000 N 
ATOM     25  C   UNL     1      -9.872  -1.969  16.968  0.00  0.00    +0.000 A 
ATOM     26  C   UNL     1     -10.694  -3.062  16.780  0.00  0.00    +0.000 A 
ATOM     27  C   UNL     1     -10.577  -1.863  20.833  0.00  0.00    +0.000 C 
ATOM     28  O   UNL     1      -9.923  -1.263  21.673  0.00  0.00    +0.000 OA
ATOM     29  N   UNL     1     -11.865  -2.345  21.059  0.00  0.00    +0.000 N 
ATOM     30  C   UNL     1     -12.426  -3.103  19.963  0.00  0.00    +0.000 C 
ATOM     31  H   UNL     1     -11.146  -2.196  12.255  0.00  0.00    +0.000 HD
ATOM     32  H   UNL     1      -9.638  -0.508  12.384  0.00  0.00    +0.000 HD
ATOM     33  H   UNL     1     -10.505   0.558  13.483  0.00  0.00    +0.000 HD
ATOM     34  H   UNL     1      -8.367  -0.985  14.295  0.00  0.00    +0.000 HD
ATOM     35  H   UNL     1     -13.039  -2.377  14.189  0.00  0.00    +0.000 HD
ATOM     36  H   UNL     1      -9.005  -5.699  14.398  0.00  0.00    +0.000 HD
ATOM     37  H   UNL     1      -8.203  -7.663  15.681  0.00  0.00    +0.000 HD
ATOM     38  H   UNL     1      -8.797  -7.932  18.065  0.00  0.00    +0.000 HD
ATOM     39  H   UNL     1     -10.171  -6.257  19.263  0.00  0.00    +0.000 HD
ATOM     40  H   UNL     1     -11.751   0.312  19.456  0.00  0.00    +0.000 HD
ATOM     41  H   UNL     1     -10.326   2.146  20.190  0.00  0.00    +0.000 HD
ATOM     42  H   UNL     1      -8.152   2.495  19.040  0.00  0.00    +0.000 HD
ATOM     43  H   UNL     1      -7.637   1.378  16.820  0.00  0.00    +0.000 HD
ATOM     44  H   UNL     1     -12.304  -2.203  21.955  0.00  0.00    +0.000 HD
ATOM     45  H   UNL     1     -12.982  -3.976  20.281  0.00  0.00    +0.000 HD
ATOM     46  H   UNL     1     -13.062  -2.407  19.385  0.00  0.00    +0.000 HD
ENDROOT
BRANCH   5  47
ATOM     47  C   UNL     1     -11.615  -4.331  13.693  0.00  0.00    +0.000 C 
ATOM     48  H   UNL     1     -12.612  -4.136  13.315  0.00  0.00    +0.000 HD
ATOM     49  H   UNL     1     -10.974  -4.666  12.851  0.00  0.00    +0.000 HD
ATOM     50  H   UNL     1     -11.638  -5.245  14.297  0.00  0.00    +0.000 HD
ENDBRANCH   5  47
BRANCH   1  51
ATOM     51  N   UNL     1     -12.665  -0.879  12.020  0.00  0.00    +0.000 N 
BRANCH  51  52
ATOM     52  C   UNL     1     -13.011  -1.699  10.865  0.00  0.00    +0.000 C 
ATOM     53  H   UNL     1     -13.663  -1.139  10.204  0.00  0.00    +0.000 HD
ATOM     54  H   UNL     1     -13.492  -2.629  11.178  0.00  0.00    +0.000 HD
ATOM     55  H   UNL     1     -12.095  -1.954  10.316  0.00  0.00    +0.000 HD
ENDBRANCH  51  52
BRANCH  51  56
ATOM     56  C   UNL     1     -12.721   0.518  11.836  0.00  0.00    +0.000 C 
ATOM     57  S   UNL     1     -12.125   1.381  10.519  0.00  0.00    +0.000 S 
BRANCH  56  58
ATOM     58  N   UNL     1     -13.293   1.266  12.834  0.00  0.00    +0.000 N 
ATOM     59  H   UNL     1     -12.784   2.138  12.981  0.00  0.00    +0.000 HD
BRANCH  58  60
ATOM     60  C   UNL     1     -14.726   1.374  13.010  0.00  0.00    +0.000 C 
ATOM     61  H   UNL     1     -14.967   1.877  13.949  0.00  0.00    +0.000 HD
ATOM     62  H   UNL     1     -15.138   1.931  12.167  0.00  0.00    +0.000 HD
ATOM     63  H   UNL     1     -15.147   0.364  13.030  0.00  0.00    +0.000 HD
ENDBRANCH  58  60
ENDBRANCH  56  58
ENDBRANCH  51  56
ENDBRANCH   1  51
BRANCH   6  64
ATOM     64  O   UNL     1     -12.063  -0.786  15.043  0.00  0.00    +0.000 OA
BRANCH  64  65
ATOM     65  C   UNL     1     -13.188  -0.587  15.860  0.00  0.00    +0.000 C 
ATOM     66  H   UNL     1     -13.690   0.310  15.543  0.00  0.00    +0.000 HD
ATOM     67  H   UNL     1     -13.903  -1.393  15.680  0.00  0.00    +0.000 HD
ATOM     68  H   UNL     1     -12.947  -0.481  16.914  0.00  0.00    +0.000 HD
ENDBRANCH  64  65
ENDBRANCH   6  64
TORSDOF 8
ENDMDL
MODEL 5
REMARK VINA RESULT:    -6.715      2.313      3.125
REMARK INTER + INTRA:          -9.293
REMARK INTER:                  -9.053
REMARK INTRA:                  -0.240
REMARK UNBOUND:                -0.223
REMARK  Name = 
REMARK  8 active torsions:
REMARK  status: ('A' for Active; 'I' for Inactive)
REMARK    1  A    between atoms: C_1  and  N_2
REMARK    2  A    between atoms: N_2  and  C_3
REMARK    3  A    between atoms: C_3  and  N_5
REMARK    4  A    between atoms: N_5  and  C_6
REMARK    5  A    between atoms: N_5  and  C_7
REMARK    6  A    between atoms: C_11  and  C_12
REMARK    7  A    between atoms: C_13  and  O_14
REMARK    8  A    between atoms: O_14  and  C_15
REMARK                            x       y       z     vdW  Elec       q    Type
REMARK                         _______ _______ _______ _____ _____    ______ ____
ROOT
ATOM      1  C   UNL     1     -10.948   0.070  17.245  0.00  0.00    +0.000 C 
ATOM      2  C   UNL     1     -11.932  -1.157  16.946  0.00  0.00    +0.000 C 
ATOM      3  C   UNL     1     -11.869  -2.258  18.153  0.00  0.00    +0.000 C 
ATOM      4  O   UNL     1     -11.693  -1.296  19.295  0.00  0.00    +0.000 OA
ATOM      5  C   UNL     1     -10.322  -0.835  19.375  0.00  0.00    +0.000 C 
ATOM      6  C   UNL     1      -9.723  -0.603  17.907  0.00  0.00    +0.000 C 
ATOM      7  N   UNL     1      -9.831  -1.788  20.288  0.00  0.00    +0.000 N 
ATOM      8  C   UNL     1      -9.762  -1.943  21.658  0.00  0.00    +0.000 A 
ATOM      9  C   UNL     1     -10.611  -1.410  22.651  0.00  0.00    +0.000 A 
ATOM     10  C   UNL     1     -10.409  -1.847  23.955  0.00  0.00    +0.000 A 
ATOM     11  C   UNL     1      -9.367  -2.737  24.271  0.00  0.00    +0.000 A 
ATOM     12  C   UNL     1      -8.538  -3.261  23.278  0.00  0.00    +0.000 A 
ATOM     13  C   UNL     1      -8.707  -2.906  21.956  0.00  0.00    +0.000 A 
ATOM     14  C   UNL     1      -8.173  -3.317  20.669  0.00  0.00    +0.000 A 
ATOM     15  C   UNL     1      -7.493  -4.538  20.545  0.00  0.00    +0.000 A 
ATOM     16  C   UNL     1      -8.248  -5.564  19.958  0.00  0.00    +0.000 A 
ATOM     17  C   UNL     1      -9.391  -5.059  19.285  0.00  0.00    +0.000 A 
ATOM     18  C   UNL     1      -9.470  -5.259  17.905  0.00  0.00    +0.000 A 
ATOM     19  C   UNL     1      -8.635  -5.855  16.963  0.00  0.00    +0.000 A 
ATOM     20  C   UNL     1      -9.270  -6.895  16.365  0.00  0.00    +0.000 A 
ATOM     21  C   UNL     1     -10.679  -6.933  16.419  0.00  0.00    +0.000 A 
ATOM     22  C   UNL     1     -11.476  -5.804  16.865  0.00  0.00    +0.000 A 
ATOM     23  C   UNL     1     -10.784  -4.761  17.530  0.00  0.00    +0.000 A 
ATOM     24  N   UNL     1     -10.985  -3.505  18.257  0.00  0.00    +0.000 N 
ATOM     25  C   UNL     1     -10.029  -3.816  19.235  0.00  0.00    +0.000 A 
ATOM     26  C   UNL     1      -9.256  -2.899  19.917  0.00  0.00    +0.000 A 
ATOM     27  C   UNL     1      -7.396  -6.691  19.735  0.00  0.00    +0.000 C 
ATOM     28  O   UNL     1      -7.593  -7.888  19.589  0.00  0.00    +0.000 OA
ATOM     29  N   UNL     1      -6.126  -6.120  19.789  0.00  0.00    +0.000 N 
ATOM     30  C   UNL     1      -6.114  -4.699  20.056  0.00  0.00    +0.000 C 
ATOM     31  H   UNL     1     -11.463   0.688  17.993  0.00  0.00    +0.000 HD
ATOM     32  H   UNL     1     -12.940  -0.707  16.986  0.00  0.00    +0.000 HD
ATOM     33  H   UNL     1     -11.826  -1.596  15.953  0.00  0.00    +0.000 HD
ATOM     34  H   UNL     1     -12.880  -2.669  18.266  0.00  0.00    +0.000 HD
ATOM     35  H   UNL     1      -8.832   0.029  17.935  0.00  0.00    +0.000 HD
ATOM     36  H   UNL     1     -11.455  -0.769  22.389  0.00  0.00    +0.000 HD
ATOM     37  H   UNL     1     -11.078  -1.471  24.736  0.00  0.00    +0.000 HD
ATOM     38  H   UNL     1      -9.262  -3.052  25.297  0.00  0.00    +0.000 HD
ATOM     39  H   UNL     1      -7.787  -4.012  23.556  0.00  0.00    +0.000 HD
ATOM     40  H   UNL     1      -7.554  -5.820  17.047  0.00  0.00    +0.000 HD
ATOM     41  H   UNL     1      -8.664  -7.722  16.010  0.00  0.00    +0.000 HD
ATOM     42  H   UNL     1     -11.137  -7.892  16.179  0.00  0.00    +0.000 HD
ATOM     43  H   UNL     1     -12.552  -5.911  16.895  0.00  0.00    +0.000 HD
ATOM     44  H   UNL     1      -5.309  -6.704  19.704  0.00  0.00    +0.000 HD
ATOM     45  H   UNL     1      -5.329  -4.393  20.735  0.00  0.00    +0.000 HD
ATOM     46  H   UNL     1      -6.023  -4.190  19.078  0.00  0.00    +0.000 HD
ENDROOT
BRANCH   5  47
ATOM     47  C   UNL     1      -9.923   0.494  20.099  0.00  0.00    +0.000 C 
ATOM     48  H   UNL     1      -9.088   0.408  20.785  0.00  0.00    +0.000 HD
ATOM     49  H   UNL     1      -9.681   1.265  19.339  0.00  0.00    +0.000 HD
ATOM     50  H   UNL     1     -10.756   0.983  20.617  0.00  0.00    +0.000 HD
ENDBRANCH   5  47
BRANCH   1  51
ATOM     51  N   UNL     1     -10.570   1.091  16.221  0.00  0.00    +0.000 N 
BRANCH  51  52
ATOM     52  C   UNL     1      -9.875   2.274  16.718  0.00  0.00    +0.000 C 
ATOM     53  H   UNL     1      -9.770   2.997  15.917  0.00  0.00    +0.000 HD
ATOM     54  H   UNL     1      -8.897   2.008  17.125  0.00  0.00    +0.000 HD
ATOM     55  H   UNL     1     -10.469   2.729  17.522  0.00  0.00    +0.000 HD
ENDBRANCH  51  52
BRANCH  51  56
ATOM     56  C   UNL     1     -11.505   1.303  15.187  0.00  0.00    +0.000 C 
ATOM     57  S   UNL     1     -13.004   2.057  15.329  0.00  0.00    +0.000 S 
BRANCH  56  58
ATOM     58  N   UNL     1     -11.187   0.829  13.939  0.00  0.00    +0.000 N 
ATOM     59  H   UNL     1     -10.184   0.894  13.763  0.00  0.00    +0.000 HD
BRANCH  58  60
ATOM     60  C   UNL     1     -11.821  -0.334  13.356  0.00  0.00    +0.000 C 
ATOM     61  H   UNL     1     -12.155  -1.026  14.132  0.00  0.00    +0.000 HD
ATOM     62  H   UNL     1     -12.670  -0.002  12.756  0.00  0.00    +0.000 HD
ATOM     63  H   UNL     1     -11.091  -0.842  12.718  0.00  0.00    +0.000 HD
ENDBRANCH  58  60
ENDBRANCH  56  58
ENDBRANCH  51  56
ENDBRANCH   1  51
BRANCH   6  64
ATOM     64  O   UNL     1      -9.464  -1.681  16.994  0.00  0.00    +0.000 OA
BRANCH  64  65
ATOM     65  C   UNL     1      -8.876  -1.370  15.757  0.00  0.00    +0.000 C 
ATOM     66  H   UNL     1      -7.986  -1.962  15.638  0.00  0.00    +0.000 HD
ATOM     67  H   UNL     1      -9.544  -1.696  14.956  0.00  0.00    +0.000 HD
ATOM     68  H   UNL     1      -8.598  -0.325  15.658  0.00  0.00    +0.000 HD
ENDBRANCH  64  65
ENDBRANCH   6  64
TORSDOF 8
ENDMDL
MODEL 6
REMARK VINA RESULT:    -6.474      2.983      6.807
REMARK INTER + INTRA:          -8.967
REMARK INTER:                  -8.649
REMARK INTRA:                  -0.319
REMARK UNBOUND:                -0.223
REMARK  Name = 
REMARK  8 active torsions:
REMARK  status: ('A' for Active; 'I' for Inactive)
REMARK    1  A    between atoms: C_1  and  N_2
REMARK    2  A    between atoms: N_2  and  C_3
REMARK    3  A    between atoms: C_3  and  N_5
REMARK    4  A    between atoms: N_5  and  C_6
REMARK    5  A    between atoms: N_5  and  C_7
REMARK    6  A    between atoms: C_11  and  C_12
REMARK    7  A    between atoms: C_13  and  O_14
REMARK    8  A    between atoms: O_14  and  C_15
REMARK                            x       y       z     vdW  Elec       q    Type
REMARK                         _______ _______ _______ _____ _____    ______ ____
ROOT
ATOM      1  C   UNL     1     -10.116  -5.853  17.520  0.00  0.00    +0.000 C 
ATOM      2  C   UNL     1     -11.214  -5.563  18.648  0.00  0.00    +0.000 C 
ATOM      3  C   UNL     1     -11.939  -4.121  18.392  0.00  0.00    +0.000 C 
ATOM      4  O   UNL     1     -11.951  -4.164  16.889  0.00  0.00    +0.000 OA
ATOM      5  C   UNL     1     -10.648  -3.828  16.353  0.00  0.00    +0.000 C 
ATOM      6  C   UNL     1      -9.489  -4.464  17.259  0.00  0.00    +0.000 C 
ATOM      7  N   UNL     1     -10.843  -2.445  16.173  0.00  0.00    +0.000 N 
ATOM      8  C   UNL     1     -11.356  -1.608  15.203  0.00  0.00    +0.000 A 
ATOM      9  C   UNL     1     -12.332  -1.885  14.223  0.00  0.00    +0.000 A 
ATOM     10  C   UNL     1     -12.784  -0.814  13.461  0.00  0.00    +0.000 A 
ATOM     11  C   UNL     1     -12.247   0.475  13.627  0.00  0.00    +0.000 A 
ATOM     12  C   UNL     1     -11.285   0.737  14.605  0.00  0.00    +0.000 A 
ATOM     13  C   UNL     1     -10.822  -0.269  15.427  0.00  0.00    +0.000 A 
ATOM     14  C   UNL     1      -9.974  -0.373  16.602  0.00  0.00    +0.000 A 
ATOM     15  C   UNL     1      -9.679   0.768  17.363  0.00  0.00    +0.000 A 
ATOM     16  C   UNL     1     -10.407   0.872  18.557  0.00  0.00    +0.000 A 
ATOM     17  C   UNL     1     -11.005  -0.363  18.919  0.00  0.00    +0.000 A 
ATOM     18  C   UNL     1     -10.599  -0.952  20.119  0.00  0.00    +0.000 A 
ATOM     19  C   UNL     1      -9.673  -0.609  21.101  0.00  0.00    +0.000 A 
ATOM     20  C   UNL     1     -10.296  -0.445  22.296  0.00  0.00    +0.000 A 
ATOM     21  C   UNL     1     -11.563  -1.039  22.471  0.00  0.00    +0.000 A 
ATOM     22  C   UNL     1     -12.111  -2.004  21.535  0.00  0.00    +0.000 A 
ATOM     23  C   UNL     1     -11.464  -2.110  20.279  0.00  0.00    +0.000 A 
ATOM     24  N   UNL     1     -11.561  -2.751  18.965  0.00  0.00    +0.000 N 
ATOM     25  C   UNL     1     -11.190  -1.589  18.273  0.00  0.00    +0.000 A 
ATOM     26  C   UNL     1     -10.513  -1.558  17.071  0.00  0.00    +0.000 A 
ATOM     27  C   UNL     1      -9.896   1.974  19.313  0.00  0.00    +0.000 C 
ATOM     28  O   UNL     1     -10.355   2.682  20.196  0.00  0.00    +0.000 OA
ATOM     29  N   UNL     1      -8.640   2.170  18.742  0.00  0.00    +0.000 N 
ATOM     30  C   UNL     1      -8.326   1.274  17.651  0.00  0.00    +0.000 C 
ATOM     31  H   UNL     1     -10.679  -6.164  16.629  0.00  0.00    +0.000 HD
ATOM     32  H   UNL     1     -11.984  -6.335  18.476  0.00  0.00    +0.000 HD
ATOM     33  H   UNL     1     -10.863  -5.696  19.672  0.00  0.00    +0.000 HD
ATOM     34  H   UNL     1     -12.987  -4.229  18.699  0.00  0.00    +0.000 HD
ATOM     35  H   UNL     1      -8.538  -4.500  16.723  0.00  0.00    +0.000 HD
ATOM     36  H   UNL     1     -12.787  -2.875  14.142  0.00  0.00    +0.000 HD
ATOM     37  H   UNL     1     -13.564  -1.001  12.716  0.00  0.00    +0.000 HD
ATOM     38  H   UNL     1     -12.641   1.271  13.016  0.00  0.00    +0.000 HD
ATOM     39  H   UNL     1     -10.949   1.771  14.753  0.00  0.00    +0.000 HD
ATOM     40  H   UNL     1      -8.747  -0.093  20.866  0.00  0.00    +0.000 HD
ATOM     41  H   UNL     1      -9.864   0.258  23.001  0.00  0.00    +0.000 HD
ATOM     42  H   UNL     1     -12.146  -0.672  23.316  0.00  0.00    +0.000 HD
ATOM     43  H   UNL     1     -13.098  -2.407  21.726  0.00  0.00    +0.000 HD
ATOM     44  H   UNL     1      -8.058   2.929  19.058  0.00  0.00    +0.000 HD
ATOM     45  H   UNL     1      -7.813   1.756  16.829  0.00  0.00    +0.000 HD
ATOM     46  H   UNL     1      -7.723   0.449  18.077  0.00  0.00    +0.000 HD
ENDROOT
BRANCH   5  47
ATOM     47  C   UNL     1     -10.198  -4.247  14.914  0.00  0.00    +0.000 C 
ATOM     48  H   UNL     1      -9.715  -3.465  14.339  0.00  0.00    +0.000 HD
ATOM     49  H   UNL     1      -9.508  -5.114  14.985  0.00  0.00    +0.000 HD
ATOM     50  H   UNL     1     -11.000  -4.686  14.309  0.00  0.00    +0.000 HD
ENDBRANCH   5  47
BRANCH   1  51
ATOM     51  N   UNL     1      -9.096  -6.943  17.623  0.00  0.00    +0.000 N 
BRANCH  51  52
ATOM     52  C   UNL     1      -8.091  -6.985  16.566  0.00  0.00    +0.000 C 
ATOM     53  H   UNL     1      -7.995  -6.003  16.117  0.00  0.00    +0.000 HD
ATOM     54  H   UNL     1      -8.355  -7.728  15.809  0.00  0.00    +0.000 HD
ATOM     55  H   UNL     1      -7.123  -7.266  17.001  0.00  0.00    +0.000 HD
ENDBRANCH  51  52
BRANCH  51  56
ATOM     56  C   UNL     1      -9.569  -8.187  18.089  0.00  0.00    +0.000 C 
ATOM     57  S   UNL     1      -9.267  -8.874  19.596  0.00  0.00    +0.000 S 
BRANCH  56  58
ATOM     58  N   UNL     1     -10.331  -8.936  17.228  0.00  0.00    +0.000 N 
ATOM     59  H   UNL     1     -10.800  -8.347  16.540  0.00  0.00    +0.000 HD
BRANCH  58  60
ATOM     60  C   UNL     1      -9.905 -10.223  16.721  0.00  0.00    +0.000 C 
ATOM     61  H   UNL     1      -8.934 -10.145  16.225  0.00  0.00    +0.000 HD
ATOM     62  H   UNL     1      -9.846 -10.924  17.556  0.00  0.00    +0.000 HD
ATOM     63  H   UNL     1     -10.647 -10.571  15.995  0.00  0.00    +0.000 HD
ENDBRANCH  58  60
ENDBRANCH  56  58
ENDBRANCH  51  56
ENDBRANCH   1  51
BRANCH   6  64
ATOM     64  O   UNL     1      -9.218  -4.019  18.598  0.00  0.00    +0.000 OA
BRANCH  64  65
ATOM     65  C   UNL     1      -8.042  -4.474  19.217  0.00  0.00    +0.000 C 
ATOM     66  H   UNL     1      -7.896  -5.509  18.963  0.00  0.00    +0.000 HD
ATOM     67  H   UNL     1      -7.188  -3.950  18.784  0.00  0.00    +0.000 HD
ATOM     68  H   UNL     1      -8.064  -4.396  20.301  0.00  0.00    +0.000 HD
ENDBRANCH  64  65
ENDBRANCH   6  64
TORSDOF 8
ENDMDL
MODEL 7
REMARK VINA RESULT:    -6.451      6.343      9.023
REMARK INTER + INTRA:          -8.937
REMARK INTER:                  -7.731
REMARK INTRA:                  -1.206
REMARK UNBOUND:                -0.223
REMARK  Name = 
REMARK  8 active torsions:
REMARK  status: ('A' for Active; 'I' for Inactive)
REMARK    1  A    between atoms: C_1  and  N_2
REMARK    2  A    between atoms: N_2  and  C_3
REMARK    3  A    between atoms: C_3  and  N_5
REMARK    4  A    between atoms: N_5  and  C_6
REMARK    5  A    between atoms: N_5  and  C_7
REMARK    6  A    between atoms: C_11  and  C_12
REMARK    7  A    between atoms: C_13  and  O_14
REMARK    8  A    between atoms: O_14  and  C_15
REMARK                            x       y       z     vdW  Elec       q    Type
REMARK                         _______ _______ _______ _____ _____    ______ ____
ROOT
ATOM      1  C   UNL     1     -13.262   3.791  18.738  0.00  0.00    +0.000 C 
ATOM      2  C   UNL     1     -13.815   2.379  19.252  0.00  0.00    +0.000 C 
ATOM      3  C   UNL     1     -13.770   2.298  20.883  0.00  0.00    +0.000 C 
ATOM      4  O   UNL     1     -14.112   3.735  21.167  0.00  0.00    +0.000 OA
ATOM      5  C   UNL     1     -12.955   4.586  20.979  0.00  0.00    +0.000 C 
ATOM      6  C   UNL     1     -12.102   4.100  19.712  0.00  0.00    +0.000 C 
ATOM      7  N   UNL     1     -12.476   4.588  22.303  0.00  0.00    +0.000 N 
ATOM      8  C   UNL     1     -12.698   5.300  23.464  0.00  0.00    +0.000 A 
ATOM      9  C   UNL     1     -13.862   5.985  23.871  0.00  0.00    +0.000 A 
ATOM     10  C   UNL     1     -13.874   6.496  25.164  0.00  0.00    +0.000 A 
ATOM     11  C   UNL     1     -12.751   6.381  26.003  0.00  0.00    +0.000 A 
ATOM     12  C   UNL     1     -11.607   5.696  25.589  0.00  0.00    +0.000 A 
ATOM     13  C   UNL     1     -11.541   5.124  24.335  0.00  0.00    +0.000 A 
ATOM     14  C   UNL     1     -10.633   4.250  23.614  0.00  0.00    +0.000 A 
ATOM     15  C   UNL     1      -9.664   3.510  24.309  0.00  0.00    +0.000 A 
ATOM     16  C   UNL     1      -9.983   2.155  24.480  0.00  0.00    +0.000 A 
ATOM     17  C   UNL     1     -11.022   1.743  23.605  0.00  0.00    +0.000 A 
ATOM     18  C   UNL     1     -10.720   0.760  22.659  0.00  0.00    +0.000 A 
ATOM     19  C   UNL     1      -9.566   0.054  22.330  0.00  0.00    +0.000 A 
ATOM     20  C   UNL     1      -9.766  -1.278  22.504  0.00  0.00    +0.000 A 
ATOM     21  C   UNL     1     -11.093  -1.752  22.527  0.00  0.00    +0.000 A 
ATOM     22  C   UNL     1     -12.225  -0.932  22.136  0.00  0.00    +0.000 A 
ATOM     23  C   UNL     1     -11.989   0.460  22.014  0.00  0.00    +0.000 A 
ATOM     24  N   UNL     1     -12.658   1.742  21.778  0.00  0.00    +0.000 N 
ATOM     25  C   UNL     1     -11.915   2.411  22.762  0.00  0.00    +0.000 A 
ATOM     26  C   UNL     1     -11.575   3.748  22.734  0.00  0.00    +0.000 A 
ATOM     27  C   UNL     1      -8.852   1.484  25.044  0.00  0.00    +0.000 C 
ATOM     28  O   UNL     1      -8.708   0.452  25.680  0.00  0.00    +0.000 OA
ATOM     29  N   UNL     1      -7.811   2.367  24.764  0.00  0.00    +0.000 N 
ATOM     30  C   UNL     1      -8.212   3.573  24.074  0.00  0.00    +0.000 C 
ATOM     31  H   UNL     1     -14.075   4.509  18.912  0.00  0.00    +0.000 HD
ATOM     32  H   UNL     1     -14.882   2.390  18.968  0.00  0.00    +0.000 HD
ATOM     33  H   UNL     1     -13.372   1.510  18.762  0.00  0.00    +0.000 HD
ATOM     34  H   UNL     1     -14.647   1.718  21.200  0.00  0.00    +0.000 HD
ATOM     35  H   UNL     1     -11.426   4.884  19.362  0.00  0.00    +0.000 HD
ATOM     36  H   UNL     1     -14.751   6.017  23.238  0.00  0.00    +0.000 HD
ATOM     37  H   UNL     1     -14.780   7.003  25.512  0.00  0.00    +0.000 HD
ATOM     38  H   UNL     1     -12.818   6.787  26.999  0.00  0.00    +0.000 HD
ATOM     39  H   UNL     1     -10.783   5.562  26.301  0.00  0.00    +0.000 HD
ATOM     40  H   UNL     1      -8.578   0.497  22.406  0.00  0.00    +0.000 HD
ATOM     41  H   UNL     1      -8.909  -1.888  22.770  0.00  0.00    +0.000 HD
ATOM     42  H   UNL     1     -11.231  -2.755  22.933  0.00  0.00    +0.000 HD
ATOM     43  H   UNL     1     -13.218  -1.358  22.195  0.00  0.00    +0.000 HD
ATOM     44  H   UNL     1      -6.880   2.166  25.091  0.00  0.00    +0.000 HD
ATOM     45  H   UNL     1      -7.710   4.464  24.431  0.00  0.00    +0.000 HD
ATOM     46  H   UNL     1      -8.020   3.405  22.997  0.00  0.00    +0.000 HD
ENDROOT
BRANCH   5  47
ATOM     47  C   UNL     1     -13.079   6.124  20.713  0.00  0.00    +0.000 C 
ATOM     48  H   UNL     1     -12.207   6.707  20.987  0.00  0.00    +0.000 HD
ATOM     49  H   UNL     1     -13.295   6.292  19.638  0.00  0.00    +0.000 HD
ATOM     50  H   UNL     1     -13.966   6.582  21.165  0.00  0.00    +0.000 HD
ENDBRANCH   5  47
BRANCH   1  51
ATOM     51  N   UNL     1     -12.915   4.070  17.311  0.00  0.00    +0.000 N 
BRANCH  51  52
ATOM     52  C   UNL     1     -13.522   5.260  16.723  0.00  0.00    +0.000 C 
ATOM     53  H   UNL     1     -13.696   5.094  15.666  0.00  0.00    +0.000 HD
ATOM     54  H   UNL     1     -12.885   6.136  16.873  0.00  0.00    +0.000 HD
ATOM     55  H   UNL     1     -14.488   5.449  17.209  0.00  0.00    +0.000 HD
ENDBRANCH  51  52
BRANCH  51  56
ATOM     56  C   UNL     1     -12.805   2.943  16.471  0.00  0.00    +0.000 C 
ATOM     57  S   UNL     1     -13.993   2.340  15.442  0.00  0.00    +0.000 S 
BRANCH  56  58
ATOM     58  N   UNL     1     -11.626   2.242  16.504  0.00  0.00    +0.000 N 
ATOM     59  H   UNL     1     -10.909   2.748  17.023  0.00  0.00    +0.000 HD
BRANCH  58  60
ATOM     60  C   UNL     1     -11.573   0.804  16.662  0.00  0.00    +0.000 C 
ATOM     61  H   UNL     1     -11.348   0.314  15.711  0.00  0.00    +0.000 HD
ATOM     62  H   UNL     1     -10.807   0.563  17.401  0.00  0.00    +0.000 HD
ATOM     63  H   UNL     1     -12.550   0.460  17.015  0.00  0.00    +0.000 HD
ENDBRANCH  58  60
ENDBRANCH  56  58
ENDBRANCH  51  56
ENDBRANCH   1  51
BRANCH   6  64
ATOM     64  O   UNL     1     -11.377   2.860  19.694  0.00  0.00    +0.000 OA
BRANCH  64  65
ATOM     65  C   UNL     1      -9.979   2.916  19.573  0.00  0.00    +0.000 C 
ATOM     66  H   UNL     1      -9.542   2.281  20.323  0.00  0.00    +0.000 HD
ATOM     67  H   UNL     1      -9.689   2.472  18.618  0.00  0.00    +0.000 HD
ATOM     68  H   UNL     1      -9.571   3.914  19.701  0.00  0.00    +0.000 HD
ENDBRANCH  64  65
ENDBRANCH   6  64
TORSDOF 8
ENDMDL
MODEL 8
REMARK VINA RESULT:    -6.253      3.626      5.485
REMARK INTER + INTRA:          -8.669
REMARK INTER:                  -7.634
REMARK INTRA:                  -1.035
REMARK UNBOUND:                -0.223
REMARK  Name = 
REMARK  8 active torsions:
REMARK  status: ('A' for Active; 'I' for Inactive)
REMARK    1  A    between atoms: C_1  and  N_2
REMARK    2  A    between atoms: N_2  and  C_3
REMARK    3  A    between atoms: C_3  and  N_5
REMARK    4  A    between atoms: N_5  and  C_6
REMARK    5  A    between atoms: N_5  and  C_7
REMARK    6  A    between atoms: C_11  and  C_12
REMARK    7  A    between atoms: C_13  and  O_14
REMARK    8  A    between atoms: O_14  and  C_15
REMARK                            x       y       z     vdW  Elec       q    Type
REMARK                         _______ _______ _______ _____ _____    ______ ____
ROOT
ATOM      1  C   UNL     1      -9.655   2.840  15.679  0.00  0.00    +0.000 C 
ATOM      2  C   UNL     1     -10.788   2.192  14.751  0.00  0.00    +0.000 C 
ATOM      3  C   UNL     1     -11.755   1.204  15.622  0.00  0.00    +0.000 C 
ATOM      4  O   UNL     1     -11.759   1.998  16.899  0.00  0.00    +0.000 OA
ATOM      5  C   UNL     1     -10.534   1.784  17.643  0.00  0.00    +0.000 C 
ATOM      6  C   UNL     1      -9.282   1.693  16.647  0.00  0.00    +0.000 C 
ATOM      7  N   UNL     1     -10.969   0.727  18.466  0.00  0.00    +0.000 N 
ATOM      8  C   UNL     1     -11.620   0.581  19.674  0.00  0.00    +0.000 A 
ATOM      9  C   UNL     1     -12.532   1.459  20.298  0.00  0.00    +0.000 A 
ATOM     10  C   UNL     1     -13.165   0.999  21.447  0.00  0.00    +0.000 A 
ATOM     11  C   UNL     1     -12.863  -0.263  21.990  0.00  0.00    +0.000 A 
ATOM     12  C   UNL     1     -11.963  -1.124  21.359  0.00  0.00    +0.000 A 
ATOM     13  C   UNL     1     -11.330  -0.752  20.191  0.00  0.00    +0.000 A 
ATOM     14  C   UNL     1     -10.477  -1.383  19.198  0.00  0.00    +0.000 A 
ATOM     15  C   UNL     1     -10.388  -2.782  19.131  0.00  0.00    +0.000 A 
ATOM     16  C   UNL     1     -11.124  -3.360  18.087  0.00  0.00    +0.000 A 
ATOM     17  C   UNL     1     -11.496  -2.400  17.109  0.00  0.00    +0.000 A 
ATOM     18  C   UNL     1     -10.993  -2.565  15.816  0.00  0.00    +0.000 A 
ATOM     19  C   UNL     1     -10.142  -3.491  15.219  0.00  0.00    +0.000 A 
ATOM     20  C   UNL     1     -10.785  -4.137  14.213  0.00  0.00    +0.000 A 
ATOM     21  C   UNL     1     -11.928  -3.526  13.656  0.00  0.00    +0.000 A 
ATOM     22  C   UNL     1     -12.298  -2.151  13.939  0.00  0.00    +0.000 A 
ATOM     23  C   UNL     1     -11.641  -1.528  15.029  0.00  0.00    +0.000 A 
ATOM     24  N   UNL     1     -11.624  -0.307  15.838  0.00  0.00    +0.000 N 
ATOM     25  C   UNL     1     -11.462  -1.004  17.045  0.00  0.00    +0.000 A 
ATOM     26  C   UNL     1     -10.801  -0.529  18.159  0.00  0.00    +0.000 A 
ATOM     27  C   UNL     1     -10.815  -4.755  18.024  0.00  0.00    +0.000 C 
ATOM     28  O   UNL     1     -11.391  -5.732  17.571  0.00  0.00    +0.000 OA
ATOM     29  N   UNL     1      -9.612  -4.826  18.725  0.00  0.00    +0.000 N 
ATOM     30  C   UNL     1      -9.145  -3.562  19.251  0.00  0.00    +0.000 C 
ATOM     31  H   UNL     1     -10.155   3.637  16.245  0.00  0.00    +0.000 HD
ATOM     32  H   UNL     1     -11.410   3.053  14.449  0.00  0.00    +0.000 HD
ATOM     33  H   UNL     1     -10.419   1.737  13.831  0.00  0.00    +0.000 HD
ATOM     34  H   UNL     1     -12.768   1.301  15.211  0.00  0.00    +0.000 HD
ATOM     35  H   UNL     1      -8.339   1.850  17.176  0.00  0.00    +0.000 HD
ATOM     36  H   UNL     1     -12.806   2.410  19.838  0.00  0.00    +0.000 HD
ATOM     37  H   UNL     1     -13.900   1.652  21.930  0.00  0.00    +0.000 HD
ATOM     38  H   UNL     1     -13.390  -0.573  22.877  0.00  0.00    +0.000 HD
ATOM     39  H   UNL     1     -11.813  -2.129  21.772  0.00  0.00    +0.000 HD
ATOM     40  H   UNL     1      -9.321  -3.952  15.759  0.00  0.00    +0.000 HD
ATOM     41  H   UNL     1     -10.483  -5.155  13.990  0.00  0.00    +0.000 HD
ATOM     42  H   UNL     1     -12.567  -4.175  13.057  0.00  0.00    +0.000 HD
ATOM     43  H   UNL     1     -13.198  -1.755  13.488  0.00  0.00    +0.000 HD
ATOM     44  H   UNL     1      -9.173  -5.719  18.879  0.00  0.00    +0.000 HD
ATOM     45  H   UNL     1      -8.724  -3.637  20.246  0.00  0.00    +0.000 HD
ATOM     46  H   UNL     1      -8.407  -3.167  18.528  0.00  0.00    +0.000 HD
ENDROOT
BRANCH   5  47
ATOM     47  C   UNL     1     -10.017   2.796  18.719  0.00  0.00    +0.000 C 
ATOM     48  H   UNL     1      -9.356   3.568  18.341  0.00  0.00    +0.000 HD
ATOM     49  H   UNL     1     -10.886   3.282  19.210  0.00  0.00    +0.000 HD
ATOM     50  H   UNL     1      -9.544   2.320  19.585  0.00  0.00    +0.000 HD
ENDBRANCH   5  47
BRANCH   1  51
ATOM     51  N   UNL     1      -8.460   3.559  15.140  0.00  0.00    +0.000 N 
BRANCH  51  52
ATOM     52  C   UNL     1      -8.000   3.142  13.820  0.00  0.00    +0.000 C 
ATOM     53  H   UNL     1      -7.017   3.558  13.630  0.00  0.00    +0.000 HD
ATOM     54  H   UNL     1      -8.704   3.454  13.045  0.00  0.00    +0.000 HD
ATOM     55  H   UNL     1      -7.925   2.046  13.794  0.00  0.00    +0.000 HD
ENDBRANCH  51  52
BRANCH  51  56
ATOM     56  C   UNL     1      -7.459   3.883  16.079  0.00  0.00    +0.000 C 
ATOM     57  S   UNL     1      -7.536   5.086  17.253  0.00  0.00    +0.000 S 
BRANCH  56  58
ATOM     58  N   UNL     1      -6.288   3.169  16.026  0.00  0.00    +0.000 N 
ATOM     59  H   UNL     1      -5.636   3.577  15.356  0.00  0.00    +0.000 HD
BRANCH  58  60
ATOM     60  C   UNL     1      -5.660   2.604  17.202  0.00  0.00    +0.000 C 
ATOM     61  H   UNL     1      -5.473   3.375  17.953  0.00  0.00    +0.000 HD
ATOM     62  H   UNL     1      -6.316   1.833  17.609  0.00  0.00    +0.000 HD
ATOM     63  H   UNL     1      -4.706   2.161  16.903  0.00  0.00    +0.000 HD
ENDBRANCH  58  60
ENDBRANCH  56  58
ENDBRANCH  51  56
ENDBRANCH   1  51
BRANCH   6  64
ATOM     64  O   UNL     1      -9.094   0.601  15.734  0.00  0.00    +0.000 OA
BRANCH  64  65
ATOM     65  C   UNL     1      -7.876  -0.097  15.784  0.00  0.00    +0.000 C 
ATOM     66  H   UNL     1      -7.975  -0.917  16.472  0.00  0.00    +0.000 HD
ATOM     67  H   UNL     1      -7.694  -0.560  14.812  0.00  0.00    +0.000 HD
ATOM     68  H   UNL     1      -7.038   0.513  16.110  0.00  0.00    +0.000 HD
ENDBRANCH  64  65
ENDBRANCH   6  64
TORSDOF 8
ENDMDL
MODEL 9
REMARK VINA RESULT:    -6.235      3.019      6.745
REMARK INTER + INTRA:          -8.644
REMARK INTER:                  -7.941
REMARK INTRA:                  -0.704
REMARK UNBOUND:                -0.223
REMARK  Name = 
REMARK  8 active torsions:
REMARK  status: ('A' for Active; 'I' for Inactive)
REMARK    1  A    between atoms: C_1  and  N_2
REMARK    2  A    between atoms: N_2  and  C_3
REMARK    3  A    between atoms: C_3  and  N_5
REMARK    4  A    between atoms: N_5  and  C_6
REMARK    5  A    between atoms: N_5  and  C_7
REMARK    6  A    between atoms: C_11  and  C_12
REMARK    7  A    between atoms: C_13  and  O_14
REMARK    8  A    between atoms: O_14  and  C_15
REMARK                            x       y       z     vdW  Elec       q    Type
REMARK                         _______ _______ _______ _____ _____    ______ ____
ROOT
ATOM      1  C   UNL     1     -10.624  -2.312  15.566  0.00  0.00    +0.000 C 
ATOM      2  C   UNL     1      -9.798  -0.949  15.410  0.00  0.00    +0.000 C 
ATOM      3  C   UNL     1      -9.239  -0.442  16.860  0.00  0.00    +0.000 C 
ATOM      4  O   UNL     1      -8.948  -1.795  17.449  0.00  0.00    +0.000 OA
ATOM      5  C   UNL     1     -10.165  -2.427  17.916  0.00  0.00    +0.000 C 
ATOM      6  C   UNL     1     -11.374  -2.129  16.906  0.00  0.00    +0.000 C 
ATOM      7  N   UNL     1     -10.128  -1.993  19.255  0.00  0.00    +0.000 N 
ATOM      8  C   UNL     1      -9.564  -2.410  20.444  0.00  0.00    +0.000 A 
ATOM      9  C   UNL     1      -8.397  -3.178  20.647  0.00  0.00    +0.000 A 
ATOM     10  C   UNL     1      -7.962  -3.330  21.958  0.00  0.00    +0.000 A 
ATOM     11  C   UNL     1      -8.688  -2.788  23.034  0.00  0.00    +0.000 A 
ATOM     12  C   UNL     1      -9.838  -2.026  22.819  0.00  0.00    +0.000 A 
ATOM     13  C   UNL     1     -10.304  -1.796  21.541  0.00  0.00    +0.000 A 
ATOM     14  C   UNL     1     -11.330  -0.980  20.916  0.00  0.00    +0.000 A 
ATOM     15  C   UNL     1     -11.909   0.087  21.620  0.00  0.00    +0.000 A 
ATOM     16  C   UNL     1     -11.431   1.353  21.251  0.00  0.00    +0.000 A 
ATOM     17  C   UNL     1     -10.748   1.316  20.006  0.00  0.00    +0.000 A 
ATOM     18  C   UNL     1     -11.284   2.060  18.952  0.00  0.00    +0.000 A 
ATOM     19  C   UNL     1     -12.411   2.866  18.810  0.00  0.00    +0.000 A 
ATOM     20  C   UNL     1     -12.043   4.133  18.490  0.00  0.00    +0.000 A 
ATOM     21  C   UNL     1     -10.761   4.333  17.937  0.00  0.00    +0.000 A 
ATOM     22  C   UNL     1      -9.927   3.236  17.477  0.00  0.00    +0.000 A 
ATOM     23  C   UNL     1     -10.315   1.933  17.875  0.00  0.00    +0.000 A 
ATOM     24  N   UNL     1      -9.895   0.529  17.846  0.00  0.00    +0.000 N 
ATOM     25  C   UNL     1     -10.286   0.293  19.172  0.00  0.00    +0.000 A 
ATOM     26  C   UNL     1     -10.731  -0.914  19.670  0.00  0.00    +0.000 A 
ATOM     27  C   UNL     1     -12.214   2.351  21.911  0.00  0.00    +0.000 C 
ATOM     28  O   UNL     1     -12.023   3.520  22.207  0.00  0.00    +0.000 OA
ATOM     29  N   UNL     1     -13.360   1.643  22.268  0.00  0.00    +0.000 N 
ATOM     30  C   UNL     1     -13.347   0.246  21.895  0.00  0.00    +0.000 C 
ATOM     31  H   UNL     1      -9.872  -3.103  15.682  0.00  0.00    +0.000 HD
ATOM     32  H   UNL     1      -8.914  -1.239  14.817  0.00  0.00    +0.000 HD
ATOM     33  H   UNL     1     -10.309  -0.168  14.845  0.00  0.00    +0.000 HD
ATOM     34  H   UNL     1      -8.259   0.020  16.683  0.00  0.00    +0.000 HD
ATOM     35  H   UNL     1     -12.197  -2.832  17.052  0.00  0.00    +0.000 HD
ATOM     36  H   UNL     1      -7.806  -3.543  19.804  0.00  0.00    +0.000 HD
ATOM     37  H   UNL     1      -7.041  -3.895  22.135  0.00  0.00    +0.000 HD
ATOM     38  H   UNL     1      -8.300  -2.928  24.030  0.00  0.00    +0.000 HD
ATOM     39  H   UNL     1     -10.331  -1.556  23.679  0.00  0.00    +0.000 HD
ATOM     40  H   UNL     1     -13.339   2.657  19.333  0.00  0.00    +0.000 HD
ATOM     41  H   UNL     1     -12.687   4.945  18.813  0.00  0.00    +0.000 HD
ATOM     42  H   UNL     1     -10.396   5.360  17.945  0.00  0.00    +0.000 HD
ATOM     43  H   UNL     1      -8.947   3.464  17.079  0.00  0.00    +0.000 HD
ATOM     44  H   UNL     1     -14.086   2.098  22.798  0.00  0.00    +0.000 HD
ATOM     45  H   UNL     1     -13.762  -0.408  22.652  0.00  0.00    +0.000 HD
ATOM     46  H   UNL     1     -13.901   0.164  20.941  0.00  0.00    +0.000 HD
ENDROOT
BRANCH   5  47
ATOM     47  C   UNL     1     -10.284  -3.974  18.115  0.00  0.00    +0.000 C 
ATOM     48  H   UNL     1      -9.588  -4.566  17.532  0.00  0.00    +0.000 HD
ATOM     49  H   UNL     1     -10.144  -4.216  19.189  0.00  0.00    +0.000 HD
ATOM     50  H   UNL     1     -11.296  -4.365  17.957  0.00  0.00    +0.000 HD
ENDBRANCH   5  47
BRANCH   1  51
ATOM     51  N   UNL     1     -11.490  -2.879  14.486  0.00  0.00    +0.000 N 
BRANCH  51  52
ATOM     52  C   UNL     1     -11.674  -4.326  14.503  0.00  0.00    +0.000 C 
ATOM     53  H   UNL     1     -11.798  -4.688  13.489  0.00  0.00    +0.000 HD
ATOM     54  H   UNL     1     -12.536  -4.601  15.116  0.00  0.00    +0.000 HD
ATOM     55  H   UNL     1     -10.782  -4.797  14.935  0.00  0.00    +0.000 HD
ENDBRANCH  51  52
BRANCH  51  56
ATOM     56  C   UNL     1     -11.365  -2.278  13.217  0.00  0.00    +0.000 C 
ATOM     57  S   UNL     1     -12.360  -1.085  12.569  0.00  0.00    +0.000 S 
BRANCH  56  58
ATOM     58  N   UNL     1     -10.349  -2.719  12.405  0.00  0.00    +0.000 N 
ATOM     59  H   UNL     1     -10.636  -3.533  11.863  0.00  0.00    +0.000 HD
BRANCH  58  60
ATOM     60  C   UNL     1      -9.459  -1.818  11.705  0.00  0.00    +0.000 C 
ATOM     61  H   UNL     1      -8.852  -1.244  12.409  0.00  0.00    +0.000 HD
ATOM     62  H   UNL     1      -8.817  -2.407  11.047  0.00  0.00    +0.000 HD
ATOM     63  H   UNL     1     -10.064  -1.126  11.112  0.00  0.00    +0.000 HD
ENDBRANCH  58  60
ENDBRANCH  56  58
ENDBRANCH  51  56
ENDBRANCH   1  51
BRANCH   6  64
ATOM     64  O   UNL     1     -11.941  -0.821  16.738  0.00  0.00    +0.000 OA
BRANCH  64  65
ATOM     65  C   UNL     1     -13.276  -0.731  16.312  0.00  0.00    +0.000 C 
ATOM     66  H   UNL     1     -13.920  -0.953  17.145  0.00  0.00    +0.000 HD
ATOM     67  H   UNL     1     -13.495   0.306  16.050  0.00  0.00    +0.000 HD
ATOM     68  H   UNL     1     -13.523  -1.418  15.507  0.00  0.00    +0.000 HD
ENDBRANCH  64  65
ENDBRANCH   6  64
TORSDOF 8
ENDMDL
