REMARK  Name = 
REMARK  5 active torsions:
REMARK  status: ('A' for Active; 'I' for Inactive)
REMARK    1  A    between atoms: C_1  and  N_2
REMARK    2  A    between atoms: C_12  and  C_13
REMARK    3  A    between atoms: C_13  and  C_14
REMARK    4  A    between atoms: C_14  and  N_15
REMARK    5  A    between atoms: C_18  and  O_19
REMARK                            x       y       z     vdW  Elec       q    Type
REMARK                         _______ _______ _______ _____ _____    ______ ____
ROOT
ATOM      1  N   UNL     1      -4.091   0.900  -4.882  0.00  0.00    +0.000 N 
ATOM      2  C   UNL     1      -4.714  -0.194  -5.445  0.00  0.00    +0.000 A 
ATOM      3  C   UNL     1      -3.822  -1.232  -5.459  0.00  0.00    +0.000 A 
ATOM      4  C   UNL     1      -2.903  -0.900  -4.439  0.00  0.00    +0.000 A 
ATOM      5  C   UNL     1      -2.147  -1.752  -3.616  0.00  0.00    +0.000 A 
ATOM      6  C   UNL     1      -1.603  -1.155  -2.468  0.00  0.00    +0.000 A 
ATOM      7  C   UNL     1      -1.542   0.255  -2.324  0.00  0.00    +0.000 A 
ATOM      8  C   UNL     1      -0.916   0.845  -1.202  0.00  0.00    +0.000 A 
ATOM      9  N   UNL     1      -0.229   0.294  -0.170  0.00  0.00    +0.000 N 
ATOM     10  C   UNL     1       0.654   1.225   0.344  0.00  0.00    +0.000 A 
ATOM     11  C   UNL     1       1.797   1.007   1.131  0.00  0.00    +0.000 A 
ATOM     12  C   UNL     1       2.591   2.131   1.403  0.00  0.00    +0.000 A 
ATOM     13  C   UNL     1       2.228   3.401   0.966  0.00  0.00    +0.000 A 
ATOM     14  C   UNL     1       1.061   3.595   0.225  0.00  0.00    +0.000 A 
ATOM     15  C   UNL     1       0.269   2.486  -0.133  0.00  0.00    +0.000 A 
ATOM     16  C   UNL     1      -0.797   2.195  -1.002  0.00  0.00    +0.000 A 
ATOM     17  C   UNL     1      -1.157   3.095  -2.070  0.00  0.00    +0.000 A 
ATOM     18  C   UNL     1      -1.477   2.410  -3.277  0.00  0.00    +0.000 A 
ATOM     19  C   UNL     1      -2.013   1.103  -3.341  0.00  0.00    +0.000 A 
ATOM     20  C   UNL     1      -2.918   0.502  -4.249  0.00  0.00    +0.000 A 
ATOM     21  C   UNL     1      -0.452   2.958  -4.165  0.00  0.00    +0.000 C 
ATOM     22  O   UNL     1       0.271   2.441  -5.008  0.00  0.00    +0.000 OA
ATOM     23  N   UNL     1      -0.169   4.196  -3.633  0.00  0.00    +0.000 N 
ATOM     24  C   UNL     1      -0.622   4.376  -2.355  0.00  0.00    +0.000 C 
ATOM     25  O   UNL     1      -0.517   5.415  -1.725  0.00  0.00    +0.000 OA
ATOM     26  H   UNL     1      -5.755  -0.176  -5.743  0.00  0.00    +0.000 HD
ATOM     27  H   UNL     1      -4.001  -2.216  -5.871  0.00  0.00    +0.000 HD
ATOM     28  H   UNL     1      -2.171  -2.807  -3.721  0.00  0.00    +0.000 HD
ATOM     29  H   UNL     1      -1.201  -1.812  -1.693  0.00  0.00    +0.000 HD
ATOM     30  H   UNL     1      -0.117  -0.702  -0.046  0.00  0.00    +0.000 HD
ATOM     31  H   UNL     1       3.523   2.017   1.953  0.00  0.00    +0.000 HD
ATOM     32  H   UNL     1       2.873   4.252   1.175  0.00  0.00    +0.000 HD
ATOM     33  H   UNL     1       0.838   4.602  -0.111  0.00  0.00    +0.000 HD
ATOM     34  H   UNL     1       0.663   4.701  -3.899  0.00  0.00    +0.000 HD
ENDROOT
BRANCH   1  35
ATOM     35  C   UNL     1      -4.826   2.135  -4.688  0.00  0.00    +0.000 C 
ATOM     36  H   UNL     1      -4.385   2.903  -5.321  0.00  0.00    +0.000 HD
ATOM     37  H   UNL     1      -4.818   2.405  -3.632  0.00  0.00    +0.000 HD
ATOM     38  H   UNL     1      -5.869   1.975  -4.996  0.00  0.00    +0.000 HD
ENDBRANCH   1  35
BRANCH  11  39
ATOM     39  C   UNL     1       2.216  -0.365   1.600  0.00  0.00    +0.000 C 
ATOM     40  H   UNL     1       3.224  -0.588   1.225  0.00  0.00    +0.000 HD
ATOM     41  H   UNL     1       1.557  -1.106   1.145  0.00  0.00    +0.000 HD
BRANCH  39  42
ATOM     42  C   UNL     1       2.161  -0.482   3.129  0.00  0.00    +0.000 C 
ATOM     43  H   UNL     1       1.174  -0.170   3.498  0.00  0.00    +0.000 HD
ATOM     44  H   UNL     1       2.886   0.233   3.541  0.00  0.00    +0.000 HD
BRANCH  42  45
ATOM     45  N   UNL     1       2.496  -1.833   3.625  0.00  0.00    +0.000 NA
ATOM     46  C   UNL     1       1.478  -2.823   3.241  0.00  0.00    +0.000 C 
ATOM     47  C   UNL     1       1.818  -4.220   3.759  0.00  0.00    +0.000 C 
ATOM     48  C   UNL     1       2.051  -4.228   5.263  0.00  0.00    +0.000 C 
ATOM     49  C   UNL     1       3.046  -3.145   5.663  0.00  0.00    +0.000 C 
ATOM     50  C   UNL     1       2.669  -1.782   5.087  0.00  0.00    +0.000 C 
ATOM     51  H   UNL     1       1.415  -2.907   2.152  0.00  0.00    +0.000 HD
ATOM     52  H   UNL     1       0.485  -2.519   3.596  0.00  0.00    +0.000 HD
ATOM     53  H   UNL     1       2.721  -4.579   3.250  0.00  0.00    +0.000 HD
ATOM     54  H   UNL     1       1.000  -4.901   3.499  0.00  0.00    +0.000 HD
ATOM     55  H   UNL     1       2.444  -5.206   5.561  0.00  0.00    +0.000 HD
ATOM     56  H   UNL     1       4.046  -3.421   5.303  0.00  0.00    +0.000 HD
ATOM     57  H   UNL     1       3.099  -3.066   6.755  0.00  0.00    +0.000 HD
ATOM     58  H   UNL     1       3.473  -1.079   5.337  0.00  0.00    +0.000 HD
ATOM     59  H   UNL     1       1.757  -1.410   5.573  0.00  0.00    +0.000 HD
BRANCH  48  60
ATOM     60  O   UNL     1       0.819  -4.066   5.962  0.00  0.00    +0.000 OA
ATOM     61  H   UNL     1       0.431  -3.207   5.725  0.00  0.00    +0.000 HD
ENDBRANCH  48  60
ENDBRANCH  42  45
ENDBRANCH  39  42
ENDBRANCH  11  39
TORSDOF 5
