
 OpenBabel01112422313D

 53 58  0  0  1  0  0  0  0  0999 V2000
    2.7948   -2.0225    3.1577 C   0  0  0  0  0  0  0  0  0  0  0  0
    2.3690   -1.8328    1.7757 N   0  0  0  0  0  0  0  0  0  0  0  0
    2.9190   -0.6135    1.1741 C   0  0  0  0  0  0  0  0  0  0  0  0
    4.4567   -0.5666    1.1508 C   0  0  3  0  0  0  0  0  0  0  0  0
    4.9391    0.7562    0.4943 C   0  0  0  0  0  0  0  0  0  0  0  0
    6.4330    0.7690    0.3807 C   0  0  0  0  0  0  0  0  0  0  0  0
    7.2147    1.9164    0.2505 C   0  0  0  0  0  0  0  0  0  0  0  0
    8.5949    1.8162    0.0535 C   0  0  0  0  0  0  0  0  0  0  0  0
    9.2333    0.5646   -0.0252 C   0  0  0  0  0  0  0  0  0  0  0  0
    8.4577   -0.6069    0.0851 C   0  0  0  0  0  0  0  0  0  0  0  0
    8.6804   -2.0176    0.0232 C   0  0  0  0  0  0  0  0  0  0  0  0
    9.9128   -2.6741   -0.1985 C   0  0  0  0  0  0  0  0  0  0  0  0
   10.8307   -3.0753    0.6946 C   0  0  0  0  0  0  0  0  0  0  0  0
   10.8138   -2.9826    2.1054 C   0  0  0  0  0  0  0  0  0  0  0  0
   11.2619   -1.8964    2.8235 C   0  0  0  0  0  0  0  0  0  0  0  0
   11.1221   -2.1919    4.1544 N   0  0  0  0  0  0  0  0  0  0  0  0
   10.5910   -3.4530    4.3107 C   0  0  0  0  0  0  0  0  0  0  0  0
   10.3062   -4.1722    5.4777 C   0  0  0  0  0  0  0  0  0  0  0  0
    9.7703   -5.4495    5.3239 C   0  0  0  0  0  0  0  0  0  0  0  0
    9.4974   -6.1743    6.4180 F   0  0  0  0  0  0  0  0  0  0  0  0
    9.5141   -5.9923    4.0722 C   0  0  0  0  0  0  0  0  0  0  0  0
    9.8044   -5.2614    2.9138 C   0  0  0  0  0  0  0  0  0  0  0  0
   10.3657   -3.9702    3.0314 C   0  0  0  0  0  0  0  0  0  0  0  0
   11.9509   -3.6727   -0.0687 C   0  0  0  0  0  0  0  0  0  0  0  0
   12.9836   -4.1249    0.3883 O   0  0  0  0  0  0  0  0  0  0  0  0
   11.6212   -3.6142   -1.3762 N   0  0  0  0  0  0  0  0  0  0  0  0
   10.4145   -3.0368   -1.5401 C   0  0  0  0  0  0  0  0  0  0  0  0
    9.8490   -2.8602   -2.6077 O   0  0  0  0  0  0  0  0  0  0  0  0
    7.4647   -2.6616    0.1834 C   0  0  0  0  0  0  0  0  0  0  0  0
    6.5185   -1.6930    0.3280 N   0  0  0  0  0  0  0  0  0  0  0  0
    7.0980   -0.4510    0.2816 C   0  0  0  0  0  0  0  0  0  0  0  0
    5.0729   -1.8243    0.4751 C   0  0  0  0  0  0  0  0  0  0  0  0
    2.3191   -2.9210    3.5615 H   0  0  0  0  0  0  0  0  0  0  0  0
    2.5119   -1.1711    3.7843 H   0  0  0  0  0  0  0  0  0  0  0  0
    3.8737   -2.1834    3.2358 H   0  0  0  0  0  0  0  0  0  0  0  0
    1.3488   -1.7746    1.7593 H   0  0  0  0  0  0  0  0  0  0  0  0
    2.5289    0.2623    1.7075 H   0  0  0  0  0  0  0  0  0  0  0  0
    2.5374   -0.5409    0.1485 H   0  0  0  0  0  0  0  0  0  0  0  0
    4.8203   -0.5420    2.1873 H   0  0  0  0  0  0  0  0  0  0  0  0
    4.5999    1.6105    1.0916 H   0  0  0  0  0  0  0  0  0  0  0  0
    4.5280    0.8556   -0.5169 H   0  0  0  0  0  0  0  0  0  0  0  0
    6.7454    2.8970    0.2809 H   0  0  0  0  0  0  0  0  0  0  0  0
    9.1821    2.7240   -0.0640 H   0  0  0  0  0  0  0  0  0  0  0  0
   10.3036    0.5115   -0.1963 H   0  0  0  0  0  0  0  0  0  0  0  0
   11.6797   -0.9482    2.5127 H   0  0  0  0  0  0  0  0  0  0  0  0
   11.3888   -1.5841    4.9171 H   0  0  0  0  0  0  0  0  0  0  0  0
   10.5000   -3.7716    6.4656 H   0  0  0  0  0  0  0  0  0  0  0  0
    9.0963   -6.9921    4.0000 H   0  0  0  0  0  0  0  0  0  0  0  0
    9.6078   -5.6936    1.9368 H   0  0  0  0  0  0  0  0  0  0  0  0
   12.2019   -3.9504   -2.1262 H   0  0  0  0  0  0  0  0  0  0  0  0
    7.2030   -3.7124    0.1843 H   0  0  0  0  0  0  0  0  0  0  0  0
    4.8938   -2.7241    1.0728 H   0  0  0  0  0  0  0  0  0  0  0  0
    4.6681   -1.9795   -0.5317 H   0  0  0  0  0  0  0  0  0  0  0  0
  1  2  1  0  0  0  0
  1 33  1  0  0  0  0
  1 34  1  0  0  0  0
  1 35  1  0  0  0  0
  2  3  1  0  0  0  0
  2 36  1  0  0  0  0
  3  4  1  0  0  0  0
  3 37  1  0  0  0  0
  3 38  1  0  0  0  0
  4  5  1  0  0  0  0
  4 32  1  0  0  0  0
  4 39  1  0  0  0  0
  5  6  1  0  0  0  0
  5 40  1  0  0  0  0
  5 41  1  0  0  0  0
  6  7  1  0  0  0  0
  6 31  2  0  0  0  0
  7  8  2  0  0  0  0
  7 42  1  0  0  0  0
  8  9  1  0  0  0  0
  8 43  1  0  0  0  0
  9 10  2  0  0  0  0
  9 44  1  0  0  0  0
 10 11  1  0  0  0  0
 10 31  1  0  0  0  0
 11 12  1  0  0  0  0
 11 29  2  0  0  0  0
 12 13  2  0  0  0  0
 12 27  1  0  0  0  0
 13 14  1  0  0  0  0
 13 24  1  0  0  0  0
 14 15  2  0  0  0  0
 14 23  1  0  0  0  0
 15 16  1  0  0  0  0
 15 45  1  0  0  0  0
 16 17  1  0  0  0  0
 16 46  1  0  0  0  0
 17 18  1  0  0  0  0
 17 23  2  0  0  0  0
 18 19  2  0  0  0  0
 18 47  1  0  0  0  0
 19 20  1  0  0  0  0
 19 21  1  0  0  0  0
 21 22  2  0  0  0  0
 21 48  1  0  0  0  0
 22 23  1  0  0  0  0
 22 49  1  0  0  0  0
 24 25  2  0  0  0  0
 24 26  1  0  0  0  0
 26 27  1  0  0  0  0
 26 50  1  0  0  0  0
 27 28  2  0  0  0  0
 29 30  1  0  0  0  0
 29 51  1  0  0  0  0
 30 31  1  0  0  0  0
 30 32  1  0  0  0  0
 32 52  1  0  0  0  0
 32 53  1  0  0  0  0
M  END
$$$$
