
 OpenBabel01112422113D

 38 42  0  0  0  0  0  0  0  0999 V2000
   -2.2786    0.4307   -0.1198 O   0  0  0  0  0  0  0  0  0  0  0  0
   -1.1363    0.0157   -0.1120 C   0  0  0  0  0  0  0  0  0  0  0  0
   -0.0377    0.7877   -0.0488 N   0  0  0  0  0  0  0  0  0  0  0  0
    1.0739    0.0337    0.0091 C   0  0  0  0  0  0  0  0  0  0  0  0
    2.2056    0.4783   -0.0044 O   0  0  0  0  0  0  0  0  0  0  0  0
    0.6577   -1.3892    0.0039 C   0  0  0  0  0  0  0  0  0  0  0  0
    1.5454   -2.4783   -0.0364 N   0  0  0  0  0  0  0  0  0  0  0  0
    1.3354   -3.6564   -0.7451 C   0  0  0  0  0  0  0  0  0  0  0  0
    2.4003   -4.5043   -0.5835 C   0  0  0  0  0  0  0  0  0  0  0  0
    3.3353   -3.8505    0.2460 C   0  0  0  0  0  0  0  0  0  0  0  0
    4.5987   -4.2251    0.7445 C   0  0  0  0  0  0  0  0  0  0  0  0
    5.2933   -3.3597    1.5914 C   0  0  0  0  0  0  0  0  0  0  0  0
    4.7349   -2.1433    1.9595 C   0  0  0  0  0  0  0  0  0  0  0  0
    3.4789   -1.7558    1.4826 C   0  0  0  0  0  0  0  0  0  0  0  0
    2.7941   -2.6044    0.5913 C   0  0  0  0  0  0  0  0  0  0  0  0
   -0.6938   -1.3968   -0.0878 C   0  0  0  0  0  0  0  0  0  0  0  0
   -1.5652   -2.4909   -0.0434 N   0  0  0  0  0  0  0  0  0  0  0  0
   -1.3830   -3.6174    0.7491 C   0  0  0  0  0  0  0  0  0  0  0  0
   -2.3722   -4.5324    0.4963 C   0  0  0  0  0  0  0  0  0  0  0  0
   -3.2324   -3.9651   -0.4686 C   0  0  0  0  0  0  0  0  0  0  0  0
   -4.3906   -4.4403   -1.1163 C   0  0  0  0  0  0  0  0  0  0  0  0
   -5.0299   -3.6420   -2.0661 C   0  0  0  0  0  0  0  0  0  0  0  0
   -4.5289   -2.3846   -2.3767 C   0  0  0  0  0  0  0  0  0  0  0  0
   -3.3790   -1.8933   -1.7500 C   0  0  0  0  0  0  0  0  0  0  0  0
   -2.7410   -2.6896   -0.7786 C   0  0  0  0  0  0  0  0  0  0  0  0
   -0.0446    1.7939   -0.0567 H   0  0  0  0  0  0  0  0  0  0  0  0
    0.4442   -3.7941   -1.3425 H   0  0  0  0  0  0  0  0  0  0  0  0
    2.4948   -5.4888   -1.0231 H   0  0  0  0  0  0  0  0  0  0  0  0
    5.0319   -5.1840    0.4746 H   0  0  0  0  0  0  0  0  0  0  0  0
    6.2708   -3.6446    1.9704 H   0  0  0  0  0  0  0  0  0  0  0  0
    5.2786   -1.4788    2.6270 H   0  0  0  0  0  0  0  0  0  0  0  0
    3.0650   -0.8071    1.8073 H   0  0  0  0  0  0  0  0  0  0  0  0
   -0.5526   -3.6778    1.4409 H   0  0  0  0  0  0  0  0  0  0  0  0
   -2.4614   -5.5080    0.9556 H   0  0  0  0  0  0  0  0  0  0  0  0
   -4.7795   -5.4274   -0.8848 H   0  0  0  0  0  0  0  0  0  0  0  0
   -5.9208   -4.0108   -2.5675 H   0  0  0  0  0  0  0  0  0  0  0  0
   -5.0331   -1.7726   -3.1212 H   0  0  0  0  0  0  0  0  0  0  0  0
   -3.0039   -0.9139   -2.0278 H   0  0  0  0  0  0  0  0  0  0  0  0
  1  2  2  0  0  0  0
  2  3  1  0  0  0  0
  2 16  1  0  0  0  0
  3  4  1  0  0  0  0
  3 26  1  0  0  0  0
  4  5  2  0  0  0  0
  4  6  1  0  0  0  0
  6  7  1  0  0  0  0
  6 16  2  0  0  0  0
  7  8  1  0  0  0  0
  7 15  1  0  0  0  0
  8  9  2  0  0  0  0
  8 27  1  0  0  0  0
  9 10  1  0  0  0  0
  9 28  1  0  0  0  0
 10 11  1  0  0  0  0
 10 15  2  0  0  0  0
 11 12  2  0  0  0  0
 11 29  1  0  0  0  0
 12 13  1  0  0  0  0
 12 30  1  0  0  0  0
 13 14  2  0  0  0  0
 13 31  1  0  0  0  0
 14 15  1  0  0  0  0
 14 32  1  0  0  0  0
 16 17  1  0  0  0  0
 17 18  1  0  0  0  0
 17 25  1  0  0  0  0
 18 19  2  0  0  0  0
 18 33  1  0  0  0  0
 19 20  1  0  0  0  0
 19 34  1  0  0  0  0
 20 21  1  0  0  0  0
 20 25  2  0  0  0  0
 21 22  2  0  0  0  0
 21 35  1  0  0  0  0
 22 23  1  0  0  0  0
 22 36  1  0  0  0  0
 23 24  2  0  0  0  0
 23 37  1  0  0  0  0
 24 25  1  0  0  0  0
 24 38  1  0  0  0  0
M  END
$$$$
