
 OpenBabel01112422443D

 27 29  0  0  0  0  0  0  0  0999 V2000
   -1.9799    0.0336    1.3183 N   0  0  0  0  0  0  0  0  0  0  0  0
   -0.7413    0.0172    0.7085 C   0  0  0  0  0  0  0  0  0  0  0  0
   -0.3260   -1.1542    0.2221 N   0  0  0  0  0  0  0  0  0  0  0  0
    0.8958   -1.1676   -0.3326 C   0  0  0  0  0  0  0  0  0  0  0  0
    1.6929   -0.0561   -0.4245 C   0  0  0  0  0  0  0  0  0  0  0  0
    1.1416    1.1207    0.0289 C   0  0  0  0  0  0  0  0  0  0  0  0
    1.8629    2.3865   -0.0889 C   0  0  0  0  0  0  0  0  0  0  0  0
    1.7396    3.3925    0.8553 C   0  0  0  0  0  0  0  0  0  0  0  0
    2.5581    4.4265    0.4984 N   0  0  0  0  0  0  0  0  0  0  0  0
    3.2155    4.1330   -0.6749 C   0  0  0  0  0  0  0  0  0  0  0  0
    4.1462    4.8864   -1.4036 C   0  0  0  0  0  0  0  0  0  0  0  0
    4.7117    6.5898   -0.8131 Br  0  0  0  0  0  0  0  0  0  0  0  0
    4.6596    4.3560   -2.5881 C   0  0  0  0  0  0  0  0  0  0  0  0
    4.2361    3.1127   -3.0466 C   0  0  0  0  0  0  0  0  0  0  0  0
    3.2965    2.3736   -2.3176 C   0  0  0  0  0  0  0  0  0  0  0  0
    2.8775    1.1660   -2.8245 O   0  0  0  0  0  0  0  0  0  0  0  0
    2.7821    2.8659   -1.0905 C   0  0  0  0  0  0  0  0  0  0  0  0
   -0.0743    1.1699    0.6176 N   0  0  0  0  0  0  0  0  0  0  0  0
   -2.5336   -0.7322    0.9607 H   0  0  0  0  0  0  0  0  0  0  0  0
   -2.3721    0.9622    1.2604 H   0  0  0  0  0  0  0  0  0  0  0  0
    1.2288   -2.1271   -0.7145 H   0  0  0  0  0  0  0  0  0  0  0  0
    2.6868   -0.1176   -0.8407 H   0  0  0  0  0  0  0  0  0  0  0  0
    1.1413    3.4483    1.7555 H   0  0  0  0  0  0  0  0  0  0  0  0
    2.6705    5.2884    1.0145 H   0  0  0  0  0  0  0  0  0  0  0  0
    5.3878    4.9154   -3.1688 H   0  0  0  0  0  0  0  0  0  0  0  0
    4.6454    2.7296   -3.9768 H   0  0  0  0  0  0  0  0  0  0  0  0
    3.2892    1.0268   -3.6921 H   0  0  0  0  0  0  0  0  0  0  0  0
  1  2  1  0  0  0  0
  1 19  1  0  0  0  0
  1 20  1  0  0  0  0
  2  3  1  0  0  0  0
  2 18  2  0  0  0  0
  3  4  2  0  0  0  0
  4  5  1  0  0  0  0
  4 21  1  0  0  0  0
  5  6  2  0  0  0  0
  5 22  1  0  0  0  0
  6  7  1  0  0  0  0
  6 18  1  0  0  0  0
  7  8  2  0  0  0  0
  7 17  1  0  0  0  0
  8  9  1  0  0  0  0
  8 23  1  0  0  0  0
  9 10  1  0  0  0  0
  9 24  1  0  0  0  0
 10 11  1  0  0  0  0
 10 17  2  0  0  0  0
 11 12  1  0  0  0  0
 11 13  2  0  0  0  0
 13 14  1  0  0  0  0
 13 25  1  0  0  0  0
 14 15  2  0  0  0  0
 14 26  1  0  0  0  0
 15 16  1  0  0  0  0
 15 17  1  0  0  0  0
 16 27  1  0  0  0  0
M  END
$$$$
