REMARK  Name = 
REMARK  3 active torsions:
REMARK  status: ('A' for Active; 'I' for Inactive)
REMARK    1  A    between atoms: N_1  and  C_2
REMARK    2  A    between atoms: C_6  and  N_7
REMARK    3  A    between atoms: C_12  and  C_13
REMARK                            x       y       z     vdW  Elec       q    Type
REMARK                         _______ _______ _______ _____ _____    ______ ____
ROOT
ATOM      1  N   UNL     1       1.746  -1.560   1.264  0.00  0.00    +0.000 N 
ATOM      2  C   UNL     1       0.350  -1.652   1.300  0.00  0.00    +0.000 A 
ATOM      3  N   UNL     1      -0.196  -2.255   2.363  0.00  0.00    +0.000 NA
ATOM      4  C   UNL     1      -1.540  -2.280   2.414  0.00  0.00    +0.000 A 
ATOM      5  C   UNL     1      -2.353  -1.723   1.454  0.00  0.00    +0.000 A 
ATOM      6  C   UNL     1      -1.714  -1.138   0.381  0.00  0.00    +0.000 A 
ATOM      7  N   UNL     1      -0.371  -1.118   0.302  0.00  0.00    +0.000 NA
ATOM      8  H   UNL     1       2.078  -1.828   2.182  0.00  0.00    +0.000 HD
ATOM      9  H   UNL     1      -1.961  -2.778   3.282  0.00  0.00    +0.000 HD
ATOM     10  H   UNL     1      -3.429  -1.773   1.541  0.00  0.00    +0.000 HD
ENDROOT
BRANCH   1  15
ATOM     11  C   UNL     1       2.642   1.927   0.229  0.00  0.00    +0.000 A 
ATOM     12  C   UNL     1       3.939   1.714  -0.235  0.00  0.00    +0.000 A 
ATOM     13  C   UNL     1       4.489   0.431  -0.240  0.00  0.00    +0.000 A 
ATOM     14  C   UNL     1       3.754  -0.651   0.251  0.00  0.00    +0.000 A 
ATOM     15  C   UNL     1       2.458  -0.459   0.734  0.00  0.00    +0.000 A 
ATOM     16  C   UNL     1       1.941   0.844   0.768  0.00  0.00    +0.000 A 
ATOM     17  H   UNL     1       4.533   2.549  -0.598  0.00  0.00    +0.000 HD
ATOM     18  H   UNL     1       5.494   0.275  -0.624  0.00  0.00    +0.000 HD
ATOM     19  H   UNL     1       4.189  -1.645   0.234  0.00  0.00    +0.000 HD
ATOM     20  H   UNL     1       0.964   1.025   1.209  0.00  0.00    +0.000 HD
BRANCH  11  21
ATOM     21  N   UNL     1       2.136   3.228   0.367  0.00  0.00    +0.000 N 
ATOM     22  H   UNL     1       2.513   3.878  -0.315  0.00  0.00    +0.000 HD
ATOM     23  H   UNL     1       1.120   3.252   0.391  0.00  0.00    +0.000 HD
ENDBRANCH  11  21
ENDBRANCH   1  15
BRANCH   6  24
ATOM     24  C   UNL     1      -2.417  -0.511  -0.748  0.00  0.00    +0.000 A 
ATOM     25  C   UNL     1      -3.672   0.104  -0.628  0.00  0.00    +0.000 A 
ATOM     26  C   UNL     1      -4.303   0.654  -1.744  0.00  0.00    +0.000 A 
ATOM     27  C   UNL     1      -3.659   0.585  -2.967  0.00  0.00    +0.000 A 
ATOM     28  N   UNL     1      -2.444   0.030  -3.135  0.00  0.00    +0.000 NA
ATOM     29  C   UNL     1      -1.854  -0.492  -2.028  0.00  0.00    +0.000 A 
ATOM     30  H   UNL     1      -4.168   0.177   0.336  0.00  0.00    +0.000 HD
ATOM     31  H   UNL     1      -5.276   1.127  -1.661  0.00  0.00    +0.000 HD
ATOM     32  H   UNL     1      -4.114   0.987  -3.867  0.00  0.00    +0.000 HD
ATOM     33  H   UNL     1      -0.871  -0.924  -2.212  0.00  0.00    +0.000 HD
ENDBRANCH   6  24
TORSDOF 3
