REMARK  Name = 
REMARK  8 active torsions:
REMARK  status: ('A' for Active; 'I' for Inactive)
REMARK    1  A    between atoms: N_1  and  C_2
REMARK    2  A    between atoms: C_2  and  C_3
REMARK    3  A    between atoms: C_2  and  C_25
REMARK    4  A    between atoms: C_3  and  O_4
REMARK    5  A    between atoms: O_4  and  C_5
REMARK    6  A    between atoms: C_9  and  C_10
REMARK    7  A    between atoms: C_13  and  C_14
REMARK    8  A    between atoms: C_25  and  C_26
REMARK                            x       y       z     vdW  Elec       q    Type
REMARK                         _______ _______ _______ _____ _____    ______ ____
ROOT
ATOM      1  C   UNL     1       1.314   2.227   1.473  0.00  0.00    +0.000 A 
ATOM      2  C   UNL     1       0.784   3.261   2.230  0.00  0.00    +0.000 A 
ATOM      3  N   UNL     1      -0.514   3.340   2.607  0.00  0.00    +0.000 NA
ATOM      4  C   UNL     1      -1.323   2.325   2.208  0.00  0.00    +0.000 A 
ATOM      5  C   UNL     1      -0.915   1.212   1.473  0.00  0.00    +0.000 A 
ATOM      6  C   UNL     1       0.443   1.203   1.092  0.00  0.00    +0.000 A 
ATOM      7  H   UNL     1       1.413   4.087   2.554  0.00  0.00    +0.000 HD
ATOM      8  H   UNL     1      -2.367   2.476   2.469  0.00  0.00    +0.000 HD
ATOM      9  H   UNL     1       0.784   0.393   0.454  0.00  0.00    +0.000 HD
ENDROOT
BRANCH   5  10
ATOM     10  C   UNL     1      -1.876   0.203   0.960  0.00  0.00    +0.000 A 
ATOM     11  C   UNL     1      -3.044  -0.218   1.619  0.00  0.00    +0.000 A 
ATOM     12  C   UNL     1      -4.069  -0.749   0.806  0.00  0.00    +0.000 A 
ATOM     13  C   UNL     1      -5.394  -1.279   0.874  0.00  0.00    +0.000 A 
ATOM     14  N   UNL     1      -6.021  -1.126  -0.309  0.00  0.00    +0.000 NA
ATOM     15  N   UNL     1      -5.003  -1.062  -1.164  0.00  0.00    +0.000 N 
ATOM     16  C   UNL     1      -3.811  -0.836  -0.557  0.00  0.00    +0.000 A 
ATOM     17  C   UNL     1      -2.543  -0.693  -1.095  0.00  0.00    +0.000 A 
ATOM     18  N   UNL     1      -1.586  -0.155  -0.325  0.00  0.00    +0.000 NA
ATOM     19  H   UNL     1      -3.218   0.020   2.665  0.00  0.00    +0.000 HD
ATOM     20  H   UNL     1      -5.210  -1.136  -2.154  0.00  0.00    +0.000 HD
ATOM     21  H   UNL     1      -2.291  -0.920  -2.126  0.00  0.00    +0.000 HD
BRANCH  13  22
ATOM     22  C   UNL     1      -6.048  -2.260   1.798  0.00  0.00    +0.000 A 
ATOM     23  C   UNL     1      -7.419  -2.465   1.841  0.00  0.00    +0.000 A 
ATOM     24  C   UNL     1      -7.635  -3.744   2.399  0.00  0.00    +0.000 A 
ATOM     25  C   UNL     1      -6.385  -4.248   2.670  0.00  0.00    +0.000 A 
ATOM     26  O   UNL     1      -5.419  -3.330   2.380  0.00  0.00    +0.000 OA
ATOM     27  H   UNL     1      -8.158  -1.808   1.404  0.00  0.00    +0.000 HD
ATOM     28  H   UNL     1      -8.580  -4.257   2.516  0.00  0.00    +0.000 HD
ATOM     29  H   UNL     1      -6.036  -5.208   3.024  0.00  0.00    +0.000 HD
ENDBRANCH  13  22
ENDBRANCH   5  10
BRANCH   1  30
ATOM     30  O   UNL     1       2.642   2.321   1.164  0.00  0.00    +0.000 OA
BRANCH  30  31
ATOM     31  C   UNL     1       3.187   1.243   0.395  0.00  0.00    +0.000 C 
ATOM     32  H   UNL     1       2.716   1.261  -0.594  0.00  0.00    +0.000 HD
ATOM     33  H   UNL     1       2.983   0.283   0.886  0.00  0.00    +0.000 HD
BRANCH  31  34
ATOM     34  C   UNL     1       4.718   1.408   0.242  0.00  0.00    +0.000 C 
ATOM     35  H   UNL     1       4.918   2.391  -0.201  0.00  0.00    +0.000 HD
BRANCH  34  36
ATOM     36  N   UNL     1       5.388   1.401   1.559  0.00  0.00    +0.000 NA
ATOM     37  H   UNL     1       6.393   1.521   1.442  0.00  0.00    +0.000 HD
ATOM     38  H   UNL     1       5.246   0.505   2.023  0.00  0.00    +0.000 HD
ENDBRANCH  34  36
BRANCH  34  39
ATOM     39  C   UNL     1       5.305   0.286  -0.649  0.00  0.00    +0.000 C 
ATOM     40  H   UNL     1       5.139  -0.685  -0.162  0.00  0.00    +0.000 HD
ATOM     41  H   UNL     1       6.394   0.399  -0.730  0.00  0.00    +0.000 HD
BRANCH  39  42
ATOM     42  C   UNL     1       4.737   0.251  -2.051  0.00  0.00    +0.000 A 
ATOM     43  C   UNL     1       4.874   1.354  -2.905  0.00  0.00    +0.000 A 
ATOM     44  C   UNL     1       4.326   1.328  -4.189  0.00  0.00    +0.000 A 
ATOM     45  C   UNL     1       3.642   0.198  -4.634  0.00  0.00    +0.000 A 
ATOM     46  C   UNL     1       3.506  -0.907  -3.797  0.00  0.00    +0.000 A 
ATOM     47  C   UNL     1       4.056  -0.884  -2.514  0.00  0.00    +0.000 A 
ATOM     48  H   UNL     1       5.408   2.244  -2.579  0.00  0.00    +0.000 HD
ATOM     49  H   UNL     1       4.428   2.193  -4.839  0.00  0.00    +0.000 HD
ATOM     50  H   UNL     1       3.211   0.183  -5.631  0.00  0.00    +0.000 HD
ATOM     51  H   UNL     1       2.970  -1.788  -4.143  0.00  0.00    +0.000 HD
ATOM     52  H   UNL     1       3.941  -1.759  -1.878  0.00  0.00    +0.000 HD
ENDBRANCH  39  42
ENDBRANCH  34  39
ENDBRANCH  31  34
ENDBRANCH  30  31
ENDBRANCH   1  30
TORSDOF 8
