REMARK  Name = 
REMARK  7 active torsions:
REMARK  status: ('A' for Active; 'I' for Inactive)
REMARK    1  A    between atoms: C_1  and  C_2
REMARK    2  A    between atoms: C_6  and  C_7
REMARK    3  A    between atoms: C_7  and  N_8
REMARK    4  A    between atoms: C_11  and  O_12
REMARK    5  A    between atoms: C_13  and  O_14
REMARK    6  A    between atoms: C_20  and  O_21
REMARK    7  A    between atoms: C_22  and  O_23
REMARK                            x       y       z     vdW  Elec       q    Type
REMARK                         _______ _______ _______ _____ _____    ______ ____
ROOT
ATOM      1  N   UNL     1      -0.178   0.824   0.143  0.00  0.00    +0.000 N 
ATOM      2  C   UNL     1      -1.075   0.441   1.131  0.00  0.00    +0.000 A 
ATOM      3  C   UNL     1      -0.882  -0.252   2.346  0.00  0.00    +0.000 A 
ATOM      4  C   UNL     1      -2.001  -0.458   3.149  0.00  0.00    +0.000 A 
ATOM      5  C   UNL     1      -3.257  -0.007   2.773  0.00  0.00    +0.000 A 
ATOM      6  C   UNL     1      -3.450   0.673   1.572  0.00  0.00    +0.000 A 
ATOM      7  C   UNL     1      -2.335   0.902   0.737  0.00  0.00    +0.000 A 
ATOM      8  C   UNL     1      -2.178   1.574  -0.518  0.00  0.00    +0.000 A 
ATOM      9  C   UNL     1      -3.071   2.269  -1.370  0.00  0.00    +0.000 A 
ATOM     10  C   UNL     1      -2.602   2.861  -2.550  0.00  0.00    +0.000 A 
ATOM     11  C   UNL     1      -1.266   2.736  -2.894  0.00  0.00    +0.000 A 
ATOM     12  C   UNL     1      -0.370   2.040  -2.081  0.00  0.00    +0.000 A 
ATOM     13  C   UNL     1      -0.832   1.484  -0.880  0.00  0.00    +0.000 A 
ATOM     14  H   UNL     1       0.102  -0.603   2.635  0.00  0.00    +0.000 HD
ATOM     15  H   UNL     1      -4.438   1.020   1.297  0.00  0.00    +0.000 HD
ATOM     16  H   UNL     1      -4.117   2.364  -1.094  0.00  0.00    +0.000 HD
ATOM     17  H   UNL     1      -3.296   3.415  -3.173  0.00  0.00    +0.000 HD
ENDROOT
BRANCH   1  18
ATOM     18  C   UNL     1       1.275   0.688   0.238  0.00  0.00    +0.000 C 
ATOM     19  H   UNL     1       1.753   1.514  -0.296  0.00  0.00    +0.000 HD
ATOM     20  H   UNL     1       1.524   0.835   1.295  0.00  0.00    +0.000 HD
BRANCH  18  25
ATOM     21  C   UNL     1       3.491  -2.406  -0.002  0.00  0.00    +0.000 A 
ATOM     22  C   UNL     1       2.844  -3.144  -0.996  0.00  0.00    +0.000 A 
ATOM     23  C   UNL     1       1.725  -2.623  -1.642  0.00  0.00    +0.000 A 
ATOM     24  C   UNL     1       1.224  -1.373  -1.279  0.00  0.00    +0.000 A 
ATOM     25  C   UNL     1       1.808  -0.645  -0.234  0.00  0.00    +0.000 A 
ATOM     26  C   UNL     1       2.971  -1.158   0.368  0.00  0.00    +0.000 A 
ATOM     27  H   UNL     1       3.211  -4.127  -1.282  0.00  0.00    +0.000 HD
ATOM     28  H   UNL     1       1.236  -3.193  -2.427  0.00  0.00    +0.000 HD
ATOM     29  H   UNL     1       0.364  -0.983  -1.820  0.00  0.00    +0.000 HD
ATOM     30  H   UNL     1       3.476  -0.581   1.142  0.00  0.00    +0.000 HD
BRANCH  21  31
ATOM     31  C   UNL     1       4.720  -2.936   0.675  0.00  0.00    +0.000 C 
ATOM     32  H   UNL     1       5.001  -3.918   0.282  0.00  0.00    +0.000 HD
ATOM     33  H   UNL     1       4.540  -3.041   1.749  0.00  0.00    +0.000 HD
ATOM     34  H   UNL     1       5.563  -2.256   0.515  0.00  0.00    +0.000 HD
ENDBRANCH  21  31
ENDBRANCH  18  25
ENDBRANCH   1  18
BRANCH   4  35
ATOM     35  O   UNL     1      -1.906  -1.115   4.351  0.00  0.00    +0.000 OA
ATOM     36  H   UNL     1      -0.981  -1.380   4.476  0.00  0.00    +0.000 HD
ENDBRANCH   4  35
BRANCH   5  37
ATOM     37  O   UNL     1      -4.333  -0.233   3.587  0.00  0.00    +0.000 OA
ATOM     38  H   UNL     1      -3.957  -0.718   4.349  0.00  0.00    +0.000 HD
ENDBRANCH   5  37
BRANCH  11  39
ATOM     39  O   UNL     1      -0.756   3.308  -4.030  0.00  0.00    +0.000 OA
ATOM     40  H   UNL     1      -1.475   3.797  -4.467  0.00  0.00    +0.000 HD
ENDBRANCH  11  39
BRANCH  12  41
ATOM     41  O   UNL     1       0.942   1.942  -2.474  0.00  0.00    +0.000 OA
ATOM     42  H   UNL     1       0.987   2.465  -3.299  0.00  0.00    +0.000 HD
ENDBRANCH  12  41
TORSDOF 7
