MODEL 1
REMARK VINA RESULT:   -12.593      0.000      0.000
REMARK INTER + INTRA:         -18.192
REMARK INTER:                 -17.378
REMARK INTRA:                  -0.814
REMARK UNBOUND:                -0.814
REMARK  Name = 
REMARK  7 active torsions:
REMARK  status: ('A' for Active; 'I' for Inactive)
REMARK    1  A    between atoms: C_6  and  C_7
REMARK    2  A    between atoms: C_11  and  O_12
REMARK    3  A    between atoms: O_12  and  C_13
REMARK    4  A    between atoms: C_13  and  C_14
REMARK    5  A    between atoms: C_14  and  N_15
REMARK    6  A    between atoms: C_14  and  C_16
REMARK    7  A    between atoms: C_16  and  C_17
REMARK                            x       y       z     vdW  Elec       q    Type
REMARK                         _______ _______ _______ _____ _____    ______ ____
ROOT
ATOM      1  C   UNL     1      -6.559  -3.996  21.471  0.00  0.00    +0.000 A 
ATOM      2  C   UNL     1      -5.172  -3.988  21.340  0.00  0.00    +0.000 A 
ATOM      3  N   UNL     1      -4.474  -4.599  20.355  0.00  0.00    +0.000 NA
ATOM      4  C   UNL     1      -5.196  -5.308  19.459  0.00  0.00    +0.000 A 
ATOM      5  C   UNL     1      -6.574  -5.447  19.509  0.00  0.00    +0.000 A 
ATOM      6  C   UNL     1      -7.260  -4.741  20.502  0.00  0.00    +0.000 A 
ATOM      7  H   UNL     1      -4.535  -3.482  22.064  0.00  0.00    +0.000 HD
ATOM      8  H   UNL     1      -4.596  -5.763  18.685  0.00  0.00    +0.000 HD
ATOM      9  H   UNL     1      -8.344  -4.804  20.522  0.00  0.00    +0.000 HD
ENDROOT
BRANCH   1  15
ATOM     10  N   UNL     1      -8.671   2.223  24.842  0.00  0.00    +0.000 N 
ATOM     11  C   UNL     1      -8.638   0.834  24.766  0.00  0.00    +0.000 A 
ATOM     12  C   UNL     1      -8.018   0.205  23.692  0.00  0.00    +0.000 A 
ATOM     13  C   UNL     1      -7.959  -1.189  23.654  0.00  0.00    +0.000 A 
ATOM     14  C   UNL     1      -7.336  -1.886  22.593  0.00  0.00    +0.000 A 
ATOM     15  C   UNL     1      -7.248  -3.287  22.570  0.00  0.00    +0.000 A 
ATOM     16  C   UNL     1      -7.823  -3.990  23.654  0.00  0.00    +0.000 A 
ATOM     17  C   UNL     1      -8.465  -3.316  24.698  0.00  0.00    +0.000 A 
ATOM     18  C   UNL     1      -8.531  -1.919  24.708  0.00  0.00    +0.000 A 
ATOM     19  C   UNL     1      -9.135  -1.196  25.745  0.00  0.00    +0.000 A 
ATOM     20  N   UNL     1      -9.188   0.158  25.785  0.00  0.00    +0.000 NA
ATOM     21  H   UNL     1      -9.068   2.635  24.004  0.00  0.00    +0.000 HD
ATOM     22  H   UNL     1      -9.205   2.461  25.674  0.00  0.00    +0.000 HD
ATOM     23  H   UNL     1      -7.563   0.806  22.910  0.00  0.00    +0.000 HD
ATOM     24  H   UNL     1      -6.919  -1.303  21.776  0.00  0.00    +0.000 HD
ATOM     25  H   UNL     1      -7.773  -5.070  23.698  0.00  0.00    +0.000 HD
ATOM     26  H   UNL     1      -8.898  -3.897  25.511  0.00  0.00    +0.000 HD
ATOM     27  H   UNL     1      -9.586  -1.696  26.587  0.00  0.00    +0.000 HD
ENDBRANCH   1  15
BRANCH   5  28
ATOM     28  O   UNL     1      -7.340  -6.223  18.678  0.00  0.00    +0.000 OA
BRANCH  28  29
ATOM     29  C   UNL     1      -8.685  -5.745  18.529  0.00  0.00    +0.000 C 
ATOM     30  H   UNL     1      -8.823  -5.340  17.516  0.00  0.00    +0.000 HD
ATOM     31  H   UNL     1      -8.868  -4.958  19.266  0.00  0.00    +0.000 HD
BRANCH  29  32
ATOM     32  C   UNL     1      -9.711  -6.889  18.700  0.00  0.00    +0.000 C 
ATOM     33  H   UNL     1      -9.536  -7.369  19.668  0.00  0.00    +0.000 HD
BRANCH  32  34
ATOM     34  N   UNL     1     -11.094  -6.373  18.726  0.00  0.00    +0.000 NA
ATOM     35  H   UNL     1     -11.650  -6.807  17.992  0.00  0.00    +0.000 HD
ATOM     36  H   UNL     1     -11.071  -5.374  18.513  0.00  0.00    +0.000 HD
ENDBRANCH  32  34
BRANCH  32  37
ATOM     37  C   UNL     1      -9.455  -7.885  17.545  0.00  0.00    +0.000 C 
ATOM     38  H   UNL     1      -8.562  -7.554  16.996  0.00  0.00    +0.000 HD
ATOM     39  H   UNL     1     -10.287  -7.834  16.831  0.00  0.00    +0.000 HD
BRANCH  37  40
ATOM     40  C   UNL     1      -9.203  -9.308  17.918  0.00  0.00    +0.000 A 
ATOM     41  C   UNL     1      -8.761  -9.783  19.139  0.00  0.00    +0.000 A 
ATOM     42  N   UNL     1      -8.758 -11.147  19.056  0.00  0.00    +0.000 N 
ATOM     43  C   UNL     1      -8.671 -11.508  17.735  0.00  0.00    +0.000 A 
ATOM     44  C   UNL     1      -8.216 -12.683  17.129  0.00  0.00    +0.000 A 
ATOM     45  C   UNL     1      -8.364 -12.782  15.744  0.00  0.00    +0.000 A 
ATOM     46  C   UNL     1      -9.033 -11.794  15.023  0.00  0.00    +0.000 A 
ATOM     47  C   UNL     1      -9.460 -10.615  15.649  0.00  0.00    +0.000 A 
ATOM     48  C   UNL     1      -9.185 -10.429  17.018  0.00  0.00    +0.000 A 
ATOM     49  H   UNL     1      -8.522  -9.280  20.066  0.00  0.00    +0.000 HD
ATOM     50  H   UNL     1      -8.756 -11.786  19.838  0.00  0.00    +0.000 HD
ATOM     51  H   UNL     1      -7.720 -13.461  17.700  0.00  0.00    +0.000 HD
ATOM     52  H   UNL     1      -7.962 -13.649  15.223  0.00  0.00    +0.000 HD
ATOM     53  H   UNL     1      -9.194 -11.923  13.956  0.00  0.00    +0.000 HD
ATOM     54  H   UNL     1      -9.951  -9.840  15.069  0.00  0.00    +0.000 HD
ENDBRANCH  37  40
ENDBRANCH  32  37
ENDBRANCH  29  32
ENDBRANCH  28  29
ENDBRANCH   5  28
TORSDOF 7
ENDMDL
MODEL 2
REMARK VINA RESULT:   -12.234      3.095      9.749
REMARK INTER + INTRA:         -17.697
REMARK INTER:                 -16.053
REMARK INTRA:                  -1.644
REMARK UNBOUND:                -0.814
REMARK  Name = 
REMARK  7 active torsions:
REMARK  status: ('A' for Active; 'I' for Inactive)
REMARK    1  A    between atoms: C_6  and  C_7
REMARK    2  A    between atoms: C_11  and  O_12
REMARK    3  A    between atoms: O_12  and  C_13
REMARK    4  A    between atoms: C_13  and  C_14
REMARK    5  A    between atoms: C_14  and  N_15
REMARK    6  A    between atoms: C_14  and  C_16
REMARK    7  A    between atoms: C_16  and  C_17
REMARK                            x       y       z     vdW  Elec       q    Type
REMARK                         _______ _______ _______ _____ _____    ______ ____
ROOT
ATOM      1  C   UNL     1      -9.662  -7.693  16.306  0.00  0.00    +0.000 A 
ATOM      2  C   UNL     1      -8.966  -7.047  15.286  0.00  0.00    +0.000 A 
ATOM      3  N   UNL     1      -9.201  -5.787  14.852  0.00  0.00    +0.000 NA
ATOM      4  C   UNL     1     -10.229  -5.133  15.438  0.00  0.00    +0.000 A 
ATOM      5  C   UNL     1     -11.037  -5.681  16.421  0.00  0.00    +0.000 A 
ATOM      6  C   UNL     1     -10.714  -6.959  16.888  0.00  0.00    +0.000 A 
ATOM      7  H   UNL     1      -8.166  -7.544  14.739  0.00  0.00    +0.000 HD
ATOM      8  H   UNL     1     -10.366  -4.127  15.069  0.00  0.00    +0.000 HD
ATOM      9  H   UNL     1     -11.312  -7.380  17.691  0.00  0.00    +0.000 HD
ENDROOT
BRANCH   1  15
ATOM     10  N   UNL     1      -8.778 -14.881  14.871  0.00  0.00    +0.000 N 
ATOM     11  C   UNL     1      -8.744 -13.805  15.753  0.00  0.00    +0.000 A 
ATOM     12  C   UNL     1      -9.019 -12.519  15.302  0.00  0.00    +0.000 A 
ATOM     13  C   UNL     1      -9.019 -11.459  16.210  0.00  0.00    +0.000 A 
ATOM     14  C   UNL     1      -9.298 -10.131  15.814  0.00  0.00    +0.000 A 
ATOM     15  C   UNL     1      -9.331  -9.069  16.733  0.00  0.00    +0.000 A 
ATOM     16  C   UNL     1      -9.059  -9.375  18.086  0.00  0.00    +0.000 A 
ATOM     17  C   UNL     1      -8.757 -10.680  18.489  0.00  0.00    +0.000 A 
ATOM     18  C   UNL     1      -8.741 -11.726  17.560  0.00  0.00    +0.000 A 
ATOM     19  C   UNL     1      -8.475 -13.054  17.918  0.00  0.00    +0.000 A 
ATOM     20  N   UNL     1      -8.479 -14.084  17.037  0.00  0.00    +0.000 NA
ATOM     21  H   UNL     1      -8.177 -14.726  14.068  0.00  0.00    +0.000 HD
ATOM     22  H   UNL     1      -8.506 -15.706  15.399  0.00  0.00    +0.000 HD
ATOM     23  H   UNL     1      -9.256 -12.359  14.254  0.00  0.00    +0.000 HD
ATOM     24  H   UNL     1      -9.489  -9.942  14.761  0.00  0.00    +0.000 HD
ATOM     25  H   UNL     1      -9.085  -8.600  18.841  0.00  0.00    +0.000 HD
ATOM     26  H   UNL     1      -8.549 -10.870  19.541  0.00  0.00    +0.000 HD
ATOM     27  H   UNL     1      -8.261 -13.326  18.939  0.00  0.00    +0.000 HD
ENDBRANCH   1  15
BRANCH   5  28
ATOM     28  O   UNL     1     -12.142  -5.093  16.981  0.00  0.00    +0.000 OA
BRANCH  28  29
ATOM     29  C   UNL     1     -12.115  -3.659  16.929  0.00  0.00    +0.000 C 
ATOM     30  H   UNL     1     -13.106  -3.280  16.640  0.00  0.00    +0.000 HD
ATOM     31  H   UNL     1     -11.372  -3.343  16.190  0.00  0.00    +0.000 HD
BRANCH  29  32
ATOM     32  C   UNL     1     -11.786  -3.052  18.313  0.00  0.00    +0.000 C 
ATOM     33  H   UNL     1     -12.410  -2.165  18.459  0.00  0.00    +0.000 HD
BRANCH  32  34
ATOM     34  N   UNL     1     -12.118  -3.988  19.405  0.00  0.00    +0.000 NA
ATOM     35  H   UNL     1     -12.512  -3.485  20.198  0.00  0.00    +0.000 HD
ATOM     36  H   UNL     1     -11.252  -4.414  19.740  0.00  0.00    +0.000 HD
ENDBRANCH  32  34
BRANCH  32  37
ATOM     37  C   UNL     1     -10.290  -2.664  18.278  0.00  0.00    +0.000 C 
ATOM     38  H   UNL     1     -10.220  -1.568  18.226  0.00  0.00    +0.000 HD
ATOM     39  H   UNL     1      -9.839  -3.043  17.352  0.00  0.00    +0.000 HD
BRANCH  37  40
ATOM     40  C   UNL     1      -9.455  -3.074  19.446  0.00  0.00    +0.000 A 
ATOM     41  C   UNL     1      -9.266  -2.371  20.621  0.00  0.00    +0.000 A 
ATOM     42  N   UNL     1      -8.503  -3.159  21.436  0.00  0.00    +0.000 N 
ATOM     43  C   UNL     1      -7.799  -4.045  20.658  0.00  0.00    +0.000 A 
ATOM     44  C   UNL     1      -6.613  -4.744  20.902  0.00  0.00    +0.000 A 
ATOM     45  C   UNL     1      -6.210  -5.668  19.937  0.00  0.00    +0.000 A 
ATOM     46  C   UNL     1      -7.018  -5.952  18.836  0.00  0.00    +0.000 A 
ATOM     47  C   UNL     1      -8.192  -5.222  18.601  0.00  0.00    +0.000 A 
ATOM     48  C   UNL     1      -8.537  -4.180  19.484  0.00  0.00    +0.000 A 
ATOM     49  H   UNL     1      -9.661  -1.427  20.970  0.00  0.00    +0.000 HD
ATOM     50  H   UNL     1      -8.420  -3.067  22.438  0.00  0.00    +0.000 HD
ATOM     51  H   UNL     1      -6.002  -4.538  21.775  0.00  0.00    +0.000 HD
ATOM     52  H   UNL     1      -5.259  -6.184  20.052  0.00  0.00    +0.000 HD
ATOM     53  H   UNL     1      -6.717  -6.722  18.131  0.00  0.00    +0.000 HD
ATOM     54  H   UNL     1      -8.794  -5.430  17.723  0.00  0.00    +0.000 HD
ENDBRANCH  37  40
ENDBRANCH  32  37
ENDBRANCH  29  32
ENDBRANCH  28  29
ENDBRANCH   5  28
TORSDOF 7
ENDMDL
MODEL 3
REMARK VINA RESULT:   -12.197      1.952     10.293
REMARK INTER + INTRA:         -17.646
REMARK INTER:                 -16.870
REMARK INTRA:                  -0.776
REMARK UNBOUND:                -0.814
REMARK  Name = 
REMARK  7 active torsions:
REMARK  status: ('A' for Active; 'I' for Inactive)
REMARK    1  A    between atoms: C_6  and  C_7
REMARK    2  A    between atoms: C_11  and  O_12
REMARK    3  A    between atoms: O_12  and  C_13
REMARK    4  A    between atoms: C_13  and  C_14
REMARK    5  A    between atoms: C_14  and  N_15
REMARK    6  A    between atoms: C_14  and  C_16
REMARK    7  A    between atoms: C_16  and  C_17
REMARK                            x       y       z     vdW  Elec       q    Type
REMARK                         _______ _______ _______ _____ _____    ______ ____
ROOT
ATOM      1  C   UNL     1      -9.140  -7.215  17.798  0.00  0.00    +0.000 A 
ATOM      2  C   UNL     1     -10.004  -6.250  17.285  0.00  0.00    +0.000 A 
ATOM      3  N   UNL     1     -10.107  -4.975  17.727  0.00  0.00    +0.000 NA
ATOM      4  C   UNL     1      -9.332  -4.641  18.783  0.00  0.00    +0.000 A 
ATOM      5  C   UNL     1      -8.474  -5.520  19.423  0.00  0.00    +0.000 A 
ATOM      6  C   UNL     1      -8.347  -6.807  18.889  0.00  0.00    +0.000 A 
ATOM      7  H   UNL     1     -10.693  -6.477  16.473  0.00  0.00    +0.000 HD
ATOM      8  H   UNL     1      -9.438  -3.610  19.086  0.00  0.00    +0.000 HD
ATOM      9  H   UNL     1      -7.643  -7.490  19.355  0.00  0.00    +0.000 HD
ENDROOT
BRANCH   1  15
ATOM     10  N   UNL     1      -8.414 -14.511  18.657  0.00  0.00    +0.000 N 
ATOM     11  C   UNL     1      -8.606 -13.397  17.846  0.00  0.00    +0.000 A 
ATOM     12  C   UNL     1      -8.705 -12.129  18.409  0.00  0.00    +0.000 A 
ATOM     13  C   UNL     1      -8.857 -11.019  17.575  0.00  0.00    +0.000 A 
ATOM     14  C   UNL     1      -8.956  -9.705  18.086  0.00  0.00    +0.000 A 
ATOM     15  C   UNL     1      -9.076  -8.584  17.247  0.00  0.00    +0.000 A 
ATOM     16  C   UNL     1      -9.108  -8.820  15.854  0.00  0.00    +0.000 A 
ATOM     17  C   UNL     1      -9.036 -10.117  15.334  0.00  0.00    +0.000 A 
ATOM     18  C   UNL     1      -8.905 -11.218  16.186  0.00  0.00    +0.000 A 
ATOM     19  C   UNL     1      -8.798 -12.533  15.715  0.00  0.00    +0.000 A 
ATOM     20  N   UNL     1      -8.645 -13.611  16.523  0.00  0.00    +0.000 NA
ATOM     21  H   UNL     1      -9.123 -14.575  19.380  0.00  0.00    +0.000 HD
ATOM     22  H   UNL     1      -8.415 -15.325  18.047  0.00  0.00    +0.000 HD
ATOM     23  H   UNL     1      -8.636 -12.015  19.486  0.00  0.00    +0.000 HD
ATOM     24  H   UNL     1      -8.939  -9.574  19.164  0.00  0.00    +0.000 HD
ATOM     25  H   UNL     1      -9.184  -7.995  15.158  0.00  0.00    +0.000 HD
ATOM     26  H   UNL     1      -9.069 -10.253  14.254  0.00  0.00    +0.000 HD
ATOM     27  H   UNL     1      -8.821 -12.753  14.660  0.00  0.00    +0.000 HD
ENDBRANCH   1  15
BRANCH   5  28
ATOM     28  O   UNL     1      -7.735  -5.256  20.548  0.00  0.00    +0.000 OA
BRANCH  28  29
ATOM     29  C   UNL     1      -6.388  -4.849  20.264  0.00  0.00    +0.000 C 
ATOM     30  H   UNL     1      -6.378  -4.190  19.384  0.00  0.00    +0.000 HD
ATOM     31  H   UNL     1      -5.782  -5.738  20.062  0.00  0.00    +0.000 HD
BRANCH  29  32
ATOM     32  C   UNL     1      -5.785  -4.044  21.438  0.00  0.00    +0.000 C 
ATOM     33  H   UNL     1      -5.724  -4.699  22.312  0.00  0.00    +0.000 HD
BRANCH  32  34
ATOM     34  N   UNL     1      -4.407  -3.607  21.140  0.00  0.00    +0.000 NA
ATOM     35  H   UNL     1      -3.982  -4.216  20.444  0.00  0.00    +0.000 HD
ATOM     36  H   UNL     1      -3.845  -3.707  21.987  0.00  0.00    +0.000 HD
ENDBRANCH  32  34
BRANCH  32  37
ATOM     37  C   UNL     1      -6.751  -2.867  21.706  0.00  0.00    +0.000 C 
ATOM     38  H   UNL     1      -7.419  -2.765  20.838  0.00  0.00    +0.000 HD
ATOM     39  H   UNL     1      -6.178  -1.933  21.761  0.00  0.00    +0.000 HD
BRANCH  37  40
ATOM     40  C   UNL     1      -7.643  -2.979  22.898  0.00  0.00    +0.000 A 
ATOM     41  C   UNL     1      -7.470  -3.804  23.993  0.00  0.00    +0.000 A 
ATOM     42  N   UNL     1      -8.474  -3.510  24.873  0.00  0.00    +0.000 N 
ATOM     43  C   UNL     1      -9.517  -2.949  24.180  0.00  0.00    +0.000 A 
ATOM     44  C   UNL     1     -10.880  -2.864  24.477  0.00  0.00    +0.000 A 
ATOM     45  C   UNL     1     -11.676  -2.118  23.605  0.00  0.00    +0.000 A 
ATOM     46  C   UNL     1     -11.107  -1.406  22.549  0.00  0.00    +0.000 A 
ATOM     47  C   UNL     1      -9.741  -1.524  22.258  0.00  0.00    +0.000 A 
ATOM     48  C   UNL     1      -8.949  -2.393  23.035  0.00  0.00    +0.000 A 
ATOM     49  H   UNL     1      -6.693  -4.510  24.250  0.00  0.00    +0.000 HD
ATOM     50  H   UNL     1      -8.476  -3.726  25.859  0.00  0.00    +0.000 HD
ATOM     51  H   UNL     1     -11.313  -3.399  25.316  0.00  0.00    +0.000 HD
ATOM     52  H   UNL     1     -12.752  -2.083  23.759  0.00  0.00    +0.000 HD
ATOM     53  H   UNL     1     -11.736  -0.779  21.922  0.00  0.00    +0.000 HD
ATOM     54  H   UNL     1      -9.317  -0.990  21.414  0.00  0.00    +0.000 HD
ENDBRANCH  37  40
ENDBRANCH  32  37
ENDBRANCH  29  32
ENDBRANCH  28  29
ENDBRANCH   5  28
TORSDOF 7
ENDMDL
MODEL 4
REMARK VINA RESULT:   -12.094      1.268      1.977
REMARK INTER + INTRA:         -17.504
REMARK INTER:                 -16.788
REMARK INTRA:                  -0.716
REMARK UNBOUND:                -0.814
REMARK  Name = 
REMARK  7 active torsions:
REMARK  status: ('A' for Active; 'I' for Inactive)
REMARK    1  A    between atoms: C_6  and  C_7
REMARK    2  A    between atoms: C_11  and  O_12
REMARK    3  A    between atoms: O_12  and  C_13
REMARK    4  A    between atoms: C_13  and  C_14
REMARK    5  A    between atoms: C_14  and  N_15
REMARK    6  A    between atoms: C_14  and  C_16
REMARK    7  A    between atoms: C_16  and  C_17
REMARK                            x       y       z     vdW  Elec       q    Type
REMARK                         _______ _______ _______ _____ _____    ______ ____
ROOT
ATOM      1  C   UNL     1      -7.750  -4.020  20.711  0.00  0.00    +0.000 A 
ATOM      2  C   UNL     1      -6.576  -4.768  20.786  0.00  0.00    +0.000 A 
ATOM      3  N   UNL     1      -6.178  -5.695  19.884  0.00  0.00    +0.000 NA
ATOM      4  C   UNL     1      -7.024  -5.935  18.857  0.00  0.00    +0.000 A 
ATOM      5  C   UNL     1      -8.247  -5.306  18.697  0.00  0.00    +0.000 A 
ATOM      6  C   UNL     1      -8.586  -4.304  19.613  0.00  0.00    +0.000 A 
ATOM      7  H   UNL     1      -5.884  -4.659  21.620  0.00  0.00    +0.000 HD
ATOM      8  H   UNL     1      -6.654  -6.670  18.158  0.00  0.00    +0.000 HD
ATOM      9  H   UNL     1      -9.522  -3.772  19.471  0.00  0.00    +0.000 HD
ENDROOT
BRANCH   1  15
ATOM     10  N   UNL     1      -8.936  -2.047  27.725  0.00  0.00    +0.000 N 
ATOM     11  C   UNL     1      -8.869  -1.736  26.371  0.00  0.00    +0.000 A 
ATOM     12  C   UNL     1      -8.489  -2.703  25.447  0.00  0.00    +0.000 A 
ATOM     13  C   UNL     1      -8.466  -2.382  24.088  0.00  0.00    +0.000 A 
ATOM     14  C   UNL     1      -8.095  -3.323  23.101  0.00  0.00    +0.000 A 
ATOM     15  C   UNL     1      -8.105  -3.012  21.731  0.00  0.00    +0.000 A 
ATOM     16  C   UNL     1      -8.492  -1.701  21.368  0.00  0.00    +0.000 A 
ATOM     17  C   UNL     1      -8.838  -0.752  22.335  0.00  0.00    +0.000 A 
ATOM     18  C   UNL     1      -8.834  -1.086  23.693  0.00  0.00    +0.000 A 
ATOM     19  C   UNL     1      -9.201  -0.181  24.698  0.00  0.00    +0.000 A 
ATOM     20  N   UNL     1      -9.227  -0.493  26.017  0.00  0.00    +0.000 NA
ATOM     21  H   UNL     1      -8.062  -2.435  28.064  0.00  0.00    +0.000 HD
ATOM     22  H   UNL     1      -9.189  -1.192  28.213  0.00  0.00    +0.000 HD
ATOM     23  H   UNL     1      -8.238  -3.702  25.791  0.00  0.00    +0.000 HD
ATOM     24  H   UNL     1      -7.794  -4.314  23.429  0.00  0.00    +0.000 HD
ATOM     25  H   UNL     1      -8.532  -1.408  20.327  0.00  0.00    +0.000 HD
ATOM     26  H   UNL     1      -9.125   0.248  22.011  0.00  0.00    +0.000 HD
ATOM     27  H   UNL     1      -9.500   0.827  24.460  0.00  0.00    +0.000 HD
ENDBRANCH   1  15
BRANCH   5  28
ATOM     28  O   UNL     1      -9.176  -5.576  17.725  0.00  0.00    +0.000 OA
BRANCH  28  29
ATOM     29  C   UNL     1     -10.340  -6.254  18.219  0.00  0.00    +0.000 C 
ATOM     30  H   UNL     1     -11.213  -5.589  18.150  0.00  0.00    +0.000 HD
ATOM     31  H   UNL     1     -10.174  -6.532  19.264  0.00  0.00    +0.000 HD
BRANCH  29  32
ATOM     32  C   UNL     1     -10.661  -7.509  17.375  0.00  0.00    +0.000 C 
ATOM     33  H   UNL     1     -11.309  -8.165  17.963  0.00  0.00    +0.000 HD
BRANCH  32  34
ATOM     34  N   UNL     1     -11.409  -7.159  16.152  0.00  0.00    +0.000 NA
ATOM     35  H   UNL     1     -11.627  -6.164  16.139  0.00  0.00    +0.000 HD
ATOM     36  H   UNL     1     -12.307  -7.646  16.171  0.00  0.00    +0.000 HD
ENDBRANCH  32  34
BRANCH  32  37
ATOM     37  C   UNL     1      -9.309  -8.199  17.083  0.00  0.00    +0.000 C 
ATOM     38  H   UNL     1      -8.511  -7.608  17.554  0.00  0.00    +0.000 HD
ATOM     39  H   UNL     1      -9.112  -8.171  16.004  0.00  0.00    +0.000 HD
BRANCH  37  40
ATOM     40  C   UNL     1      -9.136  -9.595  17.586  0.00  0.00    +0.000 A 
ATOM     41  C   UNL     1      -8.791  -9.980  18.868  0.00  0.00    +0.000 A 
ATOM     42  N   UNL     1      -8.835 -11.346  18.896  0.00  0.00    +0.000 N 
ATOM     43  C   UNL     1      -8.677 -11.818  17.617  0.00  0.00    +0.000 A 
ATOM     44  C   UNL     1      -8.231 -13.054  17.140  0.00  0.00    +0.000 A 
ATOM     45  C   UNL     1      -8.292 -13.263  15.761  0.00  0.00    +0.000 A 
ATOM     46  C   UNL     1      -8.876 -12.317  14.919  0.00  0.00    +0.000 A 
ATOM     47  C   UNL     1      -9.296 -11.076  15.418  0.00  0.00    +0.000 A 
ATOM     48  C   UNL     1      -9.103 -10.786  16.783  0.00  0.00    +0.000 A 
ATOM     49  H   UNL     1      -8.593  -9.410  19.766  0.00  0.00    +0.000 HD
ATOM     50  H   UNL     1      -8.909 -11.917  19.725  0.00  0.00    +0.000 HD
ATOM     51  H   UNL     1      -7.802 -13.797  17.804  0.00  0.00    +0.000 HD
ATOM     52  H   UNL     1      -7.891 -14.183  15.340  0.00  0.00    +0.000 HD
ATOM     53  H   UNL     1      -8.973 -12.528  13.858  0.00  0.00    +0.000 HD
ATOM     54  H   UNL     1      -9.719 -10.336  14.746  0.00  0.00    +0.000 HD
ENDBRANCH  37  40
ENDBRANCH  32  37
ENDBRANCH  29  32
ENDBRANCH  28  29
ENDBRANCH   5  28
TORSDOF 7
ENDMDL
MODEL 5
REMARK VINA RESULT:   -11.963      1.693     11.085
REMARK INTER + INTRA:         -17.322
REMARK INTER:                 -16.925
REMARK INTRA:                  -0.397
REMARK UNBOUND:                -0.814
REMARK  Name = 
REMARK  7 active torsions:
REMARK  status: ('A' for Active; 'I' for Inactive)
REMARK    1  A    between atoms: C_6  and  C_7
REMARK    2  A    between atoms: C_11  and  O_12
REMARK    3  A    between atoms: O_12  and  C_13
REMARK    4  A    between atoms: C_13  and  C_14
REMARK    5  A    between atoms: C_14  and  N_15
REMARK    6  A    between atoms: C_14  and  C_16
REMARK    7  A    between atoms: C_16  and  C_17
REMARK                            x       y       z     vdW  Elec       q    Type
REMARK                         _______ _______ _______ _____ _____    ______ ____
ROOT
ATOM      1  C   UNL     1      -9.156  -7.544  17.487  0.00  0.00    +0.000 A 
ATOM      2  C   UNL     1      -9.946  -6.554  16.904  0.00  0.00    +0.000 A 
ATOM      3  N   UNL     1     -10.051  -5.278  17.341  0.00  0.00    +0.000 NA
ATOM      4  C   UNL     1      -9.363  -4.968  18.462  0.00  0.00    +0.000 A 
ATOM      5  C   UNL     1      -8.589  -5.872  19.171  0.00  0.00    +0.000 A 
ATOM      6  C   UNL     1      -8.451  -7.161  18.645  0.00  0.00    +0.000 A 
ATOM      7  H   UNL     1     -10.567  -6.760  16.034  0.00  0.00    +0.000 HD
ATOM      8  H   UNL     1      -9.467  -3.935  18.760  0.00  0.00    +0.000 HD
ATOM      9  H   UNL     1      -7.810  -7.864  19.167  0.00  0.00    +0.000 HD
ENDROOT
BRANCH   1  15
ATOM     10  N   UNL     1      -8.627 -14.854  18.369  0.00  0.00    +0.000 N 
ATOM     11  C   UNL     1      -8.745 -13.735  17.551  0.00  0.00    +0.000 A 
ATOM     12  C   UNL     1      -8.856 -12.467  18.109  0.00  0.00    +0.000 A 
ATOM     13  C   UNL     1      -8.932 -11.352  17.271  0.00  0.00    +0.000 A 
ATOM     14  C   UNL     1      -9.039 -10.038  17.778  0.00  0.00    +0.000 A 
ATOM     15  C   UNL     1      -9.082  -8.914  16.937  0.00  0.00    +0.000 A 
ATOM     16  C   UNL     1      -9.026  -9.146  15.543  0.00  0.00    +0.000 A 
ATOM     17  C   UNL     1      -8.946 -10.443  15.026  0.00  0.00    +0.000 A 
ATOM     18  C   UNL     1      -8.892 -11.548  15.881  0.00  0.00    +0.000 A 
ATOM     19  C   UNL     1      -8.779 -12.864  15.414  0.00  0.00    +0.000 A 
ATOM     20  N   UNL     1      -8.700 -13.946  16.228  0.00  0.00    +0.000 NA
ATOM     21  H   UNL     1      -9.383 -14.906  19.044  0.00  0.00    +0.000 HD
ATOM     22  H   UNL     1      -8.604 -15.667  17.759  0.00  0.00    +0.000 HD
ATOM     23  H   UNL     1      -8.856 -12.356  19.189  0.00  0.00    +0.000 HD
ATOM     24  H   UNL     1      -9.090  -9.909  18.856  0.00  0.00    +0.000 HD
ATOM     25  H   UNL     1      -9.041  -8.318  14.847  0.00  0.00    +0.000 HD
ATOM     26  H   UNL     1      -8.910 -10.577  13.945  0.00  0.00    +0.000 HD
ATOM     27  H   UNL     1      -8.736 -13.081  14.359  0.00  0.00    +0.000 HD
ENDBRANCH   1  15
BRANCH   5  28
ATOM     28  O   UNL     1      -7.944  -5.631  20.357  0.00  0.00    +0.000 OA
BRANCH  28  29
ATOM     29  C   UNL     1      -7.189  -4.411  20.359  0.00  0.00    +0.000 C 
ATOM     30  H   UNL     1      -7.802  -3.595  19.952  0.00  0.00    +0.000 HD
ATOM     31  H   UNL     1      -6.296  -4.543  19.740  0.00  0.00    +0.000 HD
BRANCH  29  32
ATOM     32  C   UNL     1      -6.788  -4.000  21.795  0.00  0.00    +0.000 C 
ATOM     33  H   UNL     1      -6.254  -4.835  22.258  0.00  0.00    +0.000 HD
BRANCH  32  34
ATOM     34  N   UNL     1      -5.858  -2.854  21.788  0.00  0.00    +0.000 NA
ATOM     35  H   UNL     1      -5.309  -2.835  22.645  0.00  0.00    +0.000 HD
ATOM     36  H   UNL     1      -6.406  -1.992  21.783  0.00  0.00    +0.000 HD
ENDBRANCH  32  34
BRANCH  32  37
ATOM     37  C   UNL     1      -8.105  -3.709  22.552  0.00  0.00    +0.000 C 
ATOM     38  H   UNL     1      -7.967  -3.995  23.604  0.00  0.00    +0.000 HD
ATOM     39  H   UNL     1      -8.899  -4.357  22.161  0.00  0.00    +0.000 HD
BRANCH  37  40
ATOM     40  C   UNL     1      -8.579  -2.293  22.571  0.00  0.00    +0.000 A 
ATOM     41  C   UNL     1      -8.667  -1.429  21.495  0.00  0.00    +0.000 A 
ATOM     42  N   UNL     1      -9.232  -0.275  21.959  0.00  0.00    +0.000 N 
ATOM     43  C   UNL     1      -9.018  -0.192  23.312  0.00  0.00    +0.000 A 
ATOM     44  C   UNL     1      -8.991   0.908  24.174  0.00  0.00    +0.000 A 
ATOM     45  C   UNL     1      -8.855   0.643  25.538  0.00  0.00    +0.000 A 
ATOM     46  C   UNL     1      -8.856  -0.667  26.017  0.00  0.00    +0.000 A 
ATOM     47  C   UNL     1      -8.862  -1.754  25.131  0.00  0.00    +0.000 A 
ATOM     48  C   UNL     1      -8.845  -1.506  23.744  0.00  0.00    +0.000 A 
ATOM     49  H   UNL     1      -8.447  -1.560  20.444  0.00  0.00    +0.000 HD
ATOM     50  H   UNL     1      -9.679   0.432  21.394  0.00  0.00    +0.000 HD
ATOM     51  H   UNL     1      -9.017   1.925  23.798  0.00  0.00    +0.000 HD
ATOM     52  H   UNL     1      -8.760   1.471  26.238  0.00  0.00    +0.000 HD
ATOM     53  H   UNL     1      -8.815  -0.849  27.087  0.00  0.00    +0.000 HD
ATOM     54  H   UNL     1      -8.829  -2.768  25.516  0.00  0.00    +0.000 HD
ENDBRANCH  37  40
ENDBRANCH  32  37
ENDBRANCH  29  32
ENDBRANCH  28  29
ENDBRANCH   5  28
TORSDOF 7
ENDMDL
MODEL 6
REMARK VINA RESULT:   -11.921      2.061     10.681
REMARK INTER + INTRA:         -17.265
REMARK INTER:                 -16.720
REMARK INTRA:                  -0.545
REMARK UNBOUND:                -0.814
REMARK  Name = 
REMARK  7 active torsions:
REMARK  status: ('A' for Active; 'I' for Inactive)
REMARK    1  A    between atoms: C_6  and  C_7
REMARK    2  A    between atoms: C_11  and  O_12
REMARK    3  A    between atoms: O_12  and  C_13
REMARK    4  A    between atoms: C_13  and  C_14
REMARK    5  A    between atoms: C_14  and  N_15
REMARK    6  A    between atoms: C_14  and  C_16
REMARK    7  A    between atoms: C_16  and  C_17
REMARK                            x       y       z     vdW  Elec       q    Type
REMARK                         _______ _______ _______ _____ _____    ______ ____
ROOT
ATOM      1  C   UNL     1      -9.348  -8.195  17.466  0.00  0.00    +0.000 A 
ATOM      2  C   UNL     1     -10.477  -7.691  16.824  0.00  0.00    +0.000 A 
ATOM      3  N   UNL     1     -10.788  -6.380  16.701  0.00  0.00    +0.000 NA
ATOM      4  C   UNL     1      -9.947  -5.505  17.295  0.00  0.00    +0.000 A 
ATOM      5  C   UNL     1      -8.823  -5.876  18.014  0.00  0.00    +0.000 A 
ATOM      6  C   UNL     1      -8.500  -7.236  18.056  0.00  0.00    +0.000 A 
ATOM      7  H   UNL     1     -11.220  -8.350  16.378  0.00  0.00    +0.000 HD
ATOM      8  H   UNL     1     -10.230  -4.472  17.153  0.00  0.00    +0.000 HD
ATOM      9  H   UNL     1      -7.596  -7.535  18.577  0.00  0.00    +0.000 HD
ENDROOT
BRANCH   1  15
ATOM     10  N   UNL     1      -8.997 -14.892  14.378  0.00  0.00    +0.000 N 
ATOM     11  C   UNL     1      -8.837 -14.050  15.475  0.00  0.00    +0.000 A 
ATOM     12  C   UNL     1      -9.066 -12.684  15.349  0.00  0.00    +0.000 A 
ATOM     13  C   UNL     1      -8.939 -11.862  16.471  0.00  0.00    +0.000 A 
ATOM     14  C   UNL     1      -9.165 -10.468  16.409  0.00  0.00    +0.000 A 
ATOM     15  C   UNL     1      -9.070  -9.645  17.543  0.00  0.00    +0.000 A 
ATOM     16  C   UNL     1      -8.723 -10.265  18.765  0.00  0.00    +0.000 A 
ATOM     17  C   UNL     1      -8.471 -11.639  18.837  0.00  0.00    +0.000 A 
ATOM     18  C   UNL     1      -8.583 -12.443  17.698  0.00  0.00    +0.000 A 
ATOM     19  C   UNL     1      -8.372 -13.828  17.724  0.00  0.00    +0.000 A 
ATOM     20  N   UNL     1      -8.500 -14.628  16.637  0.00  0.00    +0.000 NA
ATOM     21  H   UNL     1      -8.446 -14.583  13.585  0.00  0.00    +0.000 HD
ATOM     22  H   UNL     1      -8.739 -15.827  14.683  0.00  0.00    +0.000 HD
ATOM     23  H   UNL     1      -9.366 -12.278  14.388  0.00  0.00    +0.000 HD
ATOM     24  H   UNL     1      -9.418 -10.035  15.445  0.00  0.00    +0.000 HD
ATOM     25  H   UNL     1      -8.649  -9.684  19.675  0.00  0.00    +0.000 HD
ATOM     26  H   UNL     1      -8.202 -12.075  19.799  0.00  0.00    +0.000 HD
ATOM     27  H   UNL     1      -8.104 -14.336  18.636  0.00  0.00    +0.000 HD
ENDBRANCH   1  15
BRANCH   5  28
ATOM     28  O   UNL     1      -7.989  -5.035  18.705  0.00  0.00    +0.000 OA
BRANCH  28  29
ATOM     29  C   UNL     1      -7.874  -5.362  20.098  0.00  0.00    +0.000 C 
ATOM     30  H   UNL     1      -8.009  -6.444  20.236  0.00  0.00    +0.000 HD
ATOM     31  H   UNL     1      -8.646  -4.823  20.656  0.00  0.00    +0.000 HD
BRANCH  29  32
ATOM     32  C   UNL     1      -6.472  -5.008  20.645  0.00  0.00    +0.000 C 
ATOM     33  H   UNL     1      -6.209  -5.735  21.420  0.00  0.00    +0.000 HD
BRANCH  32  34
ATOM     34  N   UNL     1      -5.440  -5.117  19.595  0.00  0.00    +0.000 NA
ATOM     35  H   UNL     1      -5.873  -5.239  18.681  0.00  0.00    +0.000 HD
ATOM     36  H   UNL     1      -4.892  -5.962  19.765  0.00  0.00    +0.000 HD
ENDBRANCH  32  34
BRANCH  32  37
ATOM     37  C   UNL     1      -6.580  -3.588  21.246  0.00  0.00    +0.000 C 
ATOM     38  H   UNL     1      -6.211  -2.869  20.500  0.00  0.00    +0.000 HD
ATOM     39  H   UNL     1      -5.906  -3.506  22.107  0.00  0.00    +0.000 HD
BRANCH  37  40
ATOM     40  C   UNL     1      -7.943  -3.115  21.631  0.00  0.00    +0.000 A 
ATOM     41  C   UNL     1      -8.842  -2.429  20.836  0.00  0.00    +0.000 A 
ATOM     42  N   UNL     1      -9.987  -2.281  21.568  0.00  0.00    +0.000 N 
ATOM     43  C   UNL     1      -9.670  -2.367  22.901  0.00  0.00    +0.000 A 
ATOM     44  C   UNL     1     -10.328  -1.883  24.036  0.00  0.00    +0.000 A 
ATOM     45  C   UNL     1      -9.797  -2.240  25.278  0.00  0.00    +0.000 A 
ATOM     46  C   UNL     1      -8.725  -3.127  25.370  0.00  0.00    +0.000 A 
ATOM     47  C   UNL     1      -8.069  -3.581  24.217  0.00  0.00    +0.000 A 
ATOM     48  C   UNL     1      -8.494  -3.112  22.959  0.00  0.00    +0.000 A 
ATOM     49  H   UNL     1      -8.793  -2.104  19.805  0.00  0.00    +0.000 HD
ATOM     50  H   UNL     1     -10.903  -2.079  21.197  0.00  0.00    +0.000 HD
ATOM     51  H   UNL     1     -11.178  -1.214  23.958  0.00  0.00    +0.000 HD
ATOM     52  H   UNL     1     -10.235  -1.829  26.185  0.00  0.00    +0.000 HD
ATOM     53  H   UNL     1      -8.370  -3.442  26.347  0.00  0.00    +0.000 HD
ATOM     54  H   UNL     1      -7.216  -4.246  24.305  0.00  0.00    +0.000 HD
ENDBRANCH  37  40
ENDBRANCH  32  37
ENDBRANCH  29  32
ENDBRANCH  28  29
ENDBRANCH   5  28
TORSDOF 7
ENDMDL
MODEL 7
REMARK VINA RESULT:   -11.659      2.811     10.773
REMARK INTER + INTRA:         -16.904
REMARK INTER:                 -16.232
REMARK INTRA:                  -0.672
REMARK UNBOUND:                -0.814
REMARK  Name = 
REMARK  7 active torsions:
REMARK  status: ('A' for Active; 'I' for Inactive)
REMARK    1  A    between atoms: C_6  and  C_7
REMARK    2  A    between atoms: C_11  and  O_12
REMARK    3  A    between atoms: O_12  and  C_13
REMARK    4  A    between atoms: C_13  and  C_14
REMARK    5  A    between atoms: C_14  and  N_15
REMARK    6  A    between atoms: C_14  and  C_16
REMARK    7  A    between atoms: C_16  and  C_17
REMARK                            x       y       z     vdW  Elec       q    Type
REMARK                         _______ _______ _______ _____ _____    ______ ____
ROOT
ATOM      1  C   UNL     1      -9.424  -7.881  16.986  0.00  0.00    +0.000 A 
ATOM      2  C   UNL     1      -9.270  -7.293  15.732  0.00  0.00    +0.000 A 
ATOM      3  N   UNL     1      -9.489  -5.989  15.446  0.00  0.00    +0.000 NA
ATOM      4  C   UNL     1      -9.937  -5.218  16.462  0.00  0.00    +0.000 A 
ATOM      5  C   UNL     1     -10.188  -5.690  17.740  0.00  0.00    +0.000 A 
ATOM      6  C   UNL     1      -9.881  -7.027  18.010  0.00  0.00    +0.000 A 
ATOM      7  H   UNL     1      -8.968  -7.876  14.864  0.00  0.00    +0.000 HD
ATOM      8  H   UNL     1     -10.080  -4.184  16.187  0.00  0.00    +0.000 HD
ATOM      9  H   UNL     1     -10.029  -7.396  19.021  0.00  0.00    +0.000 HD
ENDROOT
BRANCH   1  15
ATOM     10  N   UNL     1      -8.905 -14.849  14.603  0.00  0.00    +0.000 N 
ATOM     11  C   UNL     1      -8.801 -13.901  15.616  0.00  0.00    +0.000 A 
ATOM     12  C   UNL     1      -9.027 -12.557  15.345  0.00  0.00    +0.000 A 
ATOM     13  C   UNL     1      -8.957 -11.625  16.383  0.00  0.00    +0.000 A 
ATOM     14  C   UNL     1      -9.184 -10.247  16.171  0.00  0.00    +0.000 A 
ATOM     15  C   UNL     1      -9.147  -9.314  17.221  0.00  0.00    +0.000 A 
ATOM     16  C   UNL     1      -8.859  -9.807  18.514  0.00  0.00    +0.000 A 
ATOM     17  C   UNL     1      -8.608 -11.164  18.735  0.00  0.00    +0.000 A 
ATOM     18  C   UNL     1      -8.661 -12.079  17.678  0.00  0.00    +0.000 A 
ATOM     19  C   UNL     1      -8.449 -13.453  17.853  0.00  0.00    +0.000 A 
ATOM     20  N   UNL     1      -8.521 -14.358  16.846  0.00  0.00    +0.000 NA
ATOM     21  H   UNL     1      -8.316 -14.616  13.811  0.00  0.00    +0.000 HD
ATOM     22  H   UNL     1      -8.659 -15.747  15.012  0.00  0.00    +0.000 HD
ATOM     23  H   UNL     1      -9.280 -12.250  14.334  0.00  0.00    +0.000 HD
ATOM     24  H   UNL     1      -9.390  -9.913  15.158  0.00  0.00    +0.000 HD
ATOM     25  H   UNL     1      -8.832  -9.137  19.365  0.00  0.00    +0.000 HD
ATOM     26  H   UNL     1      -8.385 -11.500  19.748  0.00  0.00    +0.000 HD
ATOM     27  H   UNL     1      -8.224 -13.865  18.823  0.00  0.00    +0.000 HD
ENDBRANCH   1  15
BRANCH   5  28
ATOM     28  O   UNL     1     -10.723  -4.970  18.778  0.00  0.00    +0.000 OA
BRANCH  28  29
ATOM     29  C   UNL     1     -11.569  -3.893  18.350  0.00  0.00    +0.000 C 
ATOM     30  H   UNL     1     -12.514  -3.919  18.912  0.00  0.00    +0.000 HD
ATOM     31  H   UNL     1     -11.776  -4.005  17.281  0.00  0.00    +0.000 HD
BRANCH  29  32
ATOM     32  C   UNL     1     -10.916  -2.520  18.630  0.00  0.00    +0.000 C 
ATOM     33  H   UNL     1      -9.830  -2.635  18.572  0.00  0.00    +0.000 HD
BRANCH  32  34
ATOM     34  N   UNL     1     -11.292  -1.526  17.606  0.00  0.00    +0.000 NA
ATOM     35  H   UNL     1     -11.825  -1.967  16.859  0.00  0.00    +0.000 HD
ATOM     36  H   UNL     1     -10.438  -1.168  17.173  0.00  0.00    +0.000 HD
ENDBRANCH  32  34
BRANCH  32  37
ATOM     37  C   UNL     1     -11.345  -2.112  20.058  0.00  0.00    +0.000 C 
ATOM     38  H   UNL     1     -11.809  -2.985  20.541  0.00  0.00    +0.000 HD
ATOM     39  H   UNL     1     -12.127  -1.346  19.997  0.00  0.00    +0.000 HD
BRANCH  37  40
ATOM     40  C   UNL     1     -10.268  -1.656  20.987  0.00  0.00    +0.000 A 
ATOM     41  C   UNL     1      -9.005  -1.212  20.642  0.00  0.00    +0.000 A 
ATOM     42  N   UNL     1      -8.395  -0.816  21.800  0.00  0.00    +0.000 N 
ATOM     43  C   UNL     1      -8.992  -1.460  22.854  0.00  0.00    +0.000 A 
ATOM     44  C   UNL     1      -8.523  -1.755  24.138  0.00  0.00    +0.000 A 
ATOM     45  C   UNL     1      -9.430  -2.332  25.029  0.00  0.00    +0.000 A 
ATOM     46  C   UNL     1     -10.769  -2.502  24.678  0.00  0.00    +0.000 A 
ATOM     47  C   UNL     1     -11.211  -2.219  23.378  0.00  0.00    +0.000 A 
ATOM     48  C   UNL     1     -10.277  -1.779  22.419  0.00  0.00    +0.000 A 
ATOM     49  H   UNL     1      -8.523  -1.077  19.683  0.00  0.00    +0.000 HD
ATOM     50  H   UNL     1      -7.597  -0.202  21.866  0.00  0.00    +0.000 HD
ATOM     51  H   UNL     1      -7.486  -1.597  24.413  0.00  0.00    +0.000 HD
ATOM     52  H   UNL     1      -9.090  -2.642  26.015  0.00  0.00    +0.000 HD
ATOM     53  H   UNL     1     -11.472  -2.892  25.409  0.00  0.00    +0.000 HD
ATOM     54  H   UNL     1     -12.249  -2.386  23.108  0.00  0.00    +0.000 HD
ENDBRANCH  37  40
ENDBRANCH  32  37
ENDBRANCH  29  32
ENDBRANCH  28  29
ENDBRANCH   5  28
TORSDOF 7
ENDMDL
MODEL 8
REMARK VINA RESULT:   -11.438      2.293      2.574
REMARK INTER + INTRA:         -16.598
REMARK INTER:                 -15.786
REMARK INTRA:                  -0.812
REMARK UNBOUND:                -0.814
REMARK  Name = 
REMARK  7 active torsions:
REMARK  status: ('A' for Active; 'I' for Inactive)
REMARK    1  A    between atoms: C_6  and  C_7
REMARK    2  A    between atoms: C_11  and  O_12
REMARK    3  A    between atoms: O_12  and  C_13
REMARK    4  A    between atoms: C_13  and  C_14
REMARK    5  A    between atoms: C_14  and  N_15
REMARK    6  A    between atoms: C_14  and  C_16
REMARK    7  A    between atoms: C_16  and  C_17
REMARK                            x       y       z     vdW  Elec       q    Type
REMARK                         _______ _______ _______ _____ _____    ______ ____
ROOT
ATOM      1  C   UNL     1      -8.134  -3.537  20.648  0.00  0.00    +0.000 A 
ATOM      2  C   UNL     1      -6.949  -4.105  21.111  0.00  0.00    +0.000 A 
ATOM      3  N   UNL     1      -6.301  -5.145  20.538  0.00  0.00    +0.000 NA
ATOM      4  C   UNL     1      -6.891  -5.695  19.454  0.00  0.00    +0.000 A 
ATOM      5  C   UNL     1      -8.098  -5.266  18.926  0.00  0.00    +0.000 A 
ATOM      6  C   UNL     1      -8.697  -4.144  19.507  0.00  0.00    +0.000 A 
ATOM      7  H   UNL     1      -6.458  -3.741  22.013  0.00  0.00    +0.000 HD
ATOM      8  H   UNL     1      -6.328  -6.510  19.023  0.00  0.00    +0.000 HD
ATOM      9  H   UNL     1      -9.620  -3.770  19.073  0.00  0.00    +0.000 HD
ENDROOT
BRANCH   1  15
ATOM     10  N   UNL     1     -13.772   1.148  21.519  0.00  0.00    +0.000 N 
ATOM     11  C   UNL     1     -12.513   0.682  21.884  0.00  0.00    +0.000 A 
ATOM     12  C   UNL     1     -11.967  -0.430  21.253  0.00  0.00    +0.000 A 
ATOM     13  C   UNL     1     -10.685  -0.858  21.605  0.00  0.00    +0.000 A 
ATOM     14  C   UNL     1     -10.074  -1.976  20.995  0.00  0.00    +0.000 A 
ATOM     15  C   UNL     1      -8.771  -2.388  21.324  0.00  0.00    +0.000 A 
ATOM     16  C   UNL     1      -8.087  -1.641  22.310  0.00  0.00    +0.000 A 
ATOM     17  C   UNL     1      -8.688  -0.547  22.940  0.00  0.00    +0.000 A 
ATOM     18  C   UNL     1      -9.981  -0.146  22.589  0.00  0.00    +0.000 A 
ATOM     19  C   UNL     1     -10.616   0.961  23.168  0.00  0.00    +0.000 A 
ATOM     20  N   UNL     1     -11.858   1.380  22.824  0.00  0.00    +0.000 NA
ATOM     21  H   UNL     1     -14.473   0.417  21.576  0.00  0.00    +0.000 HD
ATOM     22  H   UNL     1     -13.986   1.932  22.131  0.00  0.00    +0.000 HD
ATOM     23  H   UNL     1     -12.533  -0.936  20.477  0.00  0.00    +0.000 HD
ATOM     24  H   UNL     1     -10.643  -2.526  20.250  0.00  0.00    +0.000 HD
ATOM     25  H   UNL     1      -7.076  -1.902  22.594  0.00  0.00    +0.000 HD
ATOM     26  H   UNL     1      -8.126  -0.002  23.698  0.00  0.00    +0.000 HD
ATOM     27  H   UNL     1     -10.127   1.553  23.925  0.00  0.00    +0.000 HD
ENDBRANCH   1  15
BRANCH   5  28
ATOM     28  O   UNL     1      -8.779  -5.845  17.885  0.00  0.00    +0.000 OA
BRANCH  28  29
ATOM     29  C   UNL     1     -10.133  -6.192  18.210  0.00  0.00    +0.000 C 
ATOM     30  H   UNL     1     -10.792  -5.335  18.012  0.00  0.00    +0.000 HD
ATOM     31  H   UNL     1     -10.188  -6.459  19.270  0.00  0.00    +0.000 HD
BRANCH  29  32
ATOM     32  C   UNL     1     -10.638  -7.362  17.336  0.00  0.00    +0.000 C 
ATOM     33  H   UNL     1     -11.299  -7.988  17.943  0.00  0.00    +0.000 HD
BRANCH  32  34
ATOM     34  N   UNL     1     -11.443  -6.876  16.198  0.00  0.00    +0.000 NA
ATOM     35  H   UNL     1     -11.543  -7.606  15.494  0.00  0.00    +0.000 HD
ATOM     36  H   UNL     1     -10.937  -6.112  15.746  0.00  0.00    +0.000 HD
ENDBRANCH  32  34
BRANCH  32  37
ATOM     37  C   UNL     1      -9.386  -8.157  16.899  0.00  0.00    +0.000 C 
ATOM     38  H   UNL     1      -8.495  -7.584  17.191  0.00  0.00    +0.000 HD
ATOM     39  H   UNL     1      -9.362  -8.222  15.804  0.00  0.00    +0.000 HD
BRANCH  37  40
ATOM     40  C   UNL     1      -9.208  -9.519  17.484  0.00  0.00    +0.000 A 
ATOM     41  C   UNL     1      -8.882  -9.827  18.792  0.00  0.00    +0.000 A 
ATOM     42  N   UNL     1      -8.912 -11.189  18.898  0.00  0.00    +0.000 N 
ATOM     43  C   UNL     1      -8.727 -11.732  17.651  0.00  0.00    +0.000 A 
ATOM     44  C   UNL     1      -8.259 -12.988  17.254  0.00  0.00    +0.000 A 
ATOM     45  C   UNL     1      -8.294 -13.276  15.888  0.00  0.00    +0.000 A 
ATOM     46  C   UNL     1      -8.872 -12.386  14.983  0.00  0.00    +0.000 A 
ATOM     47  C   UNL     1      -9.315 -11.124  15.402  0.00  0.00    +0.000 A 
ATOM     48  C   UNL     1      -9.148 -10.754  16.751  0.00  0.00    +0.000 A 
ATOM     49  H   UNL     1      -8.706  -9.204  19.659  0.00  0.00    +0.000 HD
ATOM     50  H   UNL     1      -8.994 -11.713  19.757  0.00  0.00    +0.000 HD
ATOM     51  H   UNL     1      -7.834 -13.687  17.967  0.00  0.00    +0.000 HD
ATOM     52  H   UNL     1      -7.876 -14.214  15.527  0.00  0.00    +0.000 HD
ATOM     53  H   UNL     1      -8.948 -12.659  13.934  0.00  0.00    +0.000 HD
ATOM     54  H   UNL     1      -9.733 -10.429  14.682  0.00  0.00    +0.000 HD
ENDBRANCH  37  40
ENDBRANCH  32  37
ENDBRANCH  29  32
ENDBRANCH  28  29
ENDBRANCH   5  28
TORSDOF 7
ENDMDL
MODEL 9
REMARK VINA RESULT:   -11.386      2.622     10.423
REMARK INTER + INTRA:         -16.527
REMARK INTER:                 -15.713
REMARK INTRA:                  -0.813
REMARK UNBOUND:                -0.814
REMARK  Name = 
REMARK  7 active torsions:
REMARK  status: ('A' for Active; 'I' for Inactive)
REMARK    1  A    between atoms: C_6  and  C_7
REMARK    2  A    between atoms: C_11  and  O_12
REMARK    3  A    between atoms: O_12  and  C_13
REMARK    4  A    between atoms: C_13  and  C_14
REMARK    5  A    between atoms: C_14  and  N_15
REMARK    6  A    between atoms: C_14  and  C_16
REMARK    7  A    between atoms: C_16  and  C_17
REMARK                            x       y       z     vdW  Elec       q    Type
REMARK                         _______ _______ _______ _____ _____    ______ ____
ROOT
ATOM      1  C   UNL     1      -8.951  -7.533  18.022  0.00  0.00    +0.000 A 
ATOM      2  C   UNL     1      -8.136  -7.210  19.105  0.00  0.00    +0.000 A 
ATOM      3  N   UNL     1      -8.094  -6.007  19.723  0.00  0.00    +0.000 NA
ATOM      4  C   UNL     1      -8.881  -5.038  19.205  0.00  0.00    +0.000 A 
ATOM      5  C   UNL     1      -9.693  -5.210  18.096  0.00  0.00    +0.000 A 
ATOM      6  C   UNL     1      -9.759  -6.488  17.532  0.00  0.00    +0.000 A 
ATOM      7  H   UNL     1      -7.440  -7.932  19.529  0.00  0.00    +0.000 HD
ATOM      8  H   UNL     1      -8.824  -4.103  19.742  0.00  0.00    +0.000 HD
ATOM      9  H   UNL     1     -10.428  -6.645  16.691  0.00  0.00    +0.000 HD
ENDROOT
BRANCH   1  15
ATOM     10  N   UNL     1      -8.489 -14.881  18.561  0.00  0.00    +0.000 N 
ATOM     11  C   UNL     1      -8.654 -13.727  17.801  0.00  0.00    +0.000 A 
ATOM     12  C   UNL     1      -8.693 -12.482  18.418  0.00  0.00    +0.000 A 
ATOM     13  C   UNL     1      -8.819 -11.332  17.635  0.00  0.00    +0.000 A 
ATOM     14  C   UNL     1      -8.858 -10.038  18.202  0.00  0.00    +0.000 A 
ATOM     15  C   UNL     1      -8.951  -8.880  17.413  0.00  0.00    +0.000 A 
ATOM     16  C   UNL     1      -9.017  -9.055  16.012  0.00  0.00    +0.000 A 
ATOM     17  C   UNL     1      -9.005 -10.330  15.437  0.00  0.00    +0.000 A 
ATOM     18  C   UNL     1      -8.900 -11.471  16.240  0.00  0.00    +0.000 A 
ATOM     19  C   UNL     1      -8.853 -12.768  15.712  0.00  0.00    +0.000 A 
ATOM     20  N   UNL     1      -8.726 -13.883  16.472  0.00  0.00    +0.000 NA
ATOM     21  H   UNL     1      -9.186 -14.949  19.295  0.00  0.00    +0.000 HD
ATOM     22  H   UNL     1      -8.533 -15.668  17.918  0.00  0.00    +0.000 HD
ATOM     23  H   UNL     1      -8.600 -12.416  19.498  0.00  0.00    +0.000 HD
ATOM     24  H   UNL     1      -8.815  -9.954  19.284  0.00  0.00    +0.000 HD
ATOM     25  H   UNL     1      -9.075  -8.198  15.352  0.00  0.00    +0.000 HD
ATOM     26  H   UNL     1      -9.063 -10.419  14.353  0.00  0.00    +0.000 HD
ATOM     27  H   UNL     1      -8.904 -12.941  14.649  0.00  0.00    +0.000 HD
ENDBRANCH   1  15
BRANCH   5  28
ATOM     28  O   UNL     1     -10.441  -4.238  17.481  0.00  0.00    +0.000 OA
BRANCH  28  29
ATOM     29  C   UNL     1     -11.412  -3.631  18.346  0.00  0.00    +0.000 C 
ATOM     30  H   UNL     1     -11.398  -4.130  19.326  0.00  0.00    +0.000 HD
ATOM     31  H   UNL     1     -12.404  -3.735  17.896  0.00  0.00    +0.000 HD
BRANCH  29  32
ATOM     32  C   UNL     1     -11.089  -2.140  18.596  0.00  0.00    +0.000 C 
ATOM     33  H   UNL     1     -10.024  -1.979  18.404  0.00  0.00    +0.000 HD
BRANCH  32  34
ATOM     34  N   UNL     1     -11.824  -1.265  17.661  0.00  0.00    +0.000 NA
ATOM     35  H   UNL     1     -11.507  -0.302  17.750  0.00  0.00    +0.000 HD
ATOM     36  H   UNL     1     -12.811  -1.266  17.926  0.00  0.00    +0.000 HD
ENDBRANCH  32  34
BRANCH  32  37
ATOM     37  C   UNL     1     -11.423  -1.861  20.079  0.00  0.00    +0.000 C 
ATOM     38  H   UNL     1     -11.925  -2.748  20.492  0.00  0.00    +0.000 HD
ATOM     39  H   UNL     1     -12.152  -1.043  20.139  0.00  0.00    +0.000 HD
BRANCH  37  40
ATOM     40  C   UNL     1     -10.276  -1.577  20.992  0.00  0.00    +0.000 A 
ATOM     41  C   UNL     1      -8.978  -1.272  20.628  0.00  0.00    +0.000 A 
ATOM     42  N   UNL     1      -8.295  -1.003  21.781  0.00  0.00    +0.000 N 
ATOM     43  C   UNL     1      -8.939  -1.617  22.827  0.00  0.00    +0.000 A 
ATOM     44  C   UNL     1      -8.477  -2.022  24.082  0.00  0.00    +0.000 A 
ATOM     45  C   UNL     1      -9.424  -2.526  24.976  0.00  0.00    +0.000 A 
ATOM     46  C   UNL     1     -10.782  -2.518  24.659  0.00  0.00    +0.000 A 
ATOM     47  C   UNL     1     -11.219  -2.128  23.386  0.00  0.00    +0.000 A 
ATOM     48  C   UNL     1     -10.264  -1.761  22.418  0.00  0.00    +0.000 A 
ATOM     49  H   UNL     1      -8.507  -1.154  19.661  0.00  0.00    +0.000 HD
ATOM     50  H   UNL     1      -7.428  -0.492  21.849  0.00  0.00    +0.000 HD
ATOM     51  H   UNL     1      -7.421  -2.001  24.333  0.00  0.00    +0.000 HD
ATOM     52  H   UNL     1      -9.098  -2.917  25.938  0.00  0.00    +0.000 HD
ATOM     53  H   UNL     1     -11.508  -2.854  25.395  0.00  0.00    +0.000 HD
ATOM     54  H   UNL     1     -12.276  -2.158  23.142  0.00  0.00    +0.000 HD
ENDBRANCH  37  40
ENDBRANCH  32  37
ENDBRANCH  29  32
ENDBRANCH  28  29
ENDBRANCH   5  28
TORSDOF 7
ENDMDL
