MODEL 1
REMARK VINA RESULT:    -7.053      0.000      0.000
REMARK INTER + INTRA:          -9.207
REMARK INTER:                  -8.908
REMARK INTRA:                  -0.299
REMARK UNBOUND:                -0.299
REMARK  Name = 
REMARK  6 active torsions:
REMARK  status: ('A' for Active; 'I' for Inactive)
REMARK    1  A    between atoms: C_1  and  O_2
REMARK    2  A    between atoms: O_2  and  C_3
REMARK    3  A    between atoms: C_4  and  N_5
REMARK    4  A    between atoms: N_5  and  C_6
REMARK    5  A    between atoms: C_7  and  C_9
REMARK    6  A    between atoms: C_18  and  C_19
REMARK                            x       y       z     vdW  Elec       q    Type
REMARK                         _______ _______ _______ _____ _____    ______ ____
ROOT
ATOM      1  C   UNL     1     -10.357  -2.424  15.549  0.00  0.00    +0.000 C 
ATOM      2  C   UNL     1     -10.936  -3.625  14.810  0.00  0.00    +0.000 C 
ATOM      3  C   UNL     1     -11.901  -3.152  13.579  0.00  0.00    +0.000 C 
ATOM      4  C   UNL     1     -11.222  -1.752  12.454  0.00  0.00    +0.000 C 
ATOM      5  O   UNL     1      -9.796  -1.953  13.113  0.00  0.00    +0.000 OA
ATOM      6  C   UNL     1      -9.863  -1.465  14.496  0.00  0.00    +0.000 C 
ATOM      7  N   UNL     1     -11.006  -0.404  14.384  0.00  0.00    +0.000 N 
ATOM      8  C   UNL     1     -12.189  -0.710  13.809  0.00  0.00    +0.000 A 
ATOM      9  C   UNL     1     -13.217  -1.513  12.491  0.00  0.00    +0.000 A 
ATOM     10  C   UNL     1     -12.621  -1.631  10.796  0.00  0.00    +0.000 A 
ATOM     11  C   UNL     1     -11.057  -0.901  10.366  0.00  0.00    +0.000 A 
ATOM     12  C   UNL     1     -10.025  -0.085  11.577  0.00  0.00    +0.000 A 
ATOM     13  C   UNL     1     -10.534   0.114  13.359  0.00  0.00    +0.000 A 
ATOM     14  C   UNL     1     -10.411   1.611  14.513  0.00  0.00    +0.000 A 
ATOM     15  C   UNL     1     -11.740   1.922  15.406  0.00  0.00    +0.000 A 
ATOM     16  C   UNL     1     -13.129   1.893  14.831  0.00  0.00    +0.000 A 
ATOM     17  C   UNL     1     -13.198   1.808  13.416  0.00  0.00    +0.000 A 
ATOM     18  C   UNL     1     -14.171   1.219  12.571  0.00  0.00    +0.000 A 
ATOM     19  C   UNL     1     -15.537   1.025  12.417  0.00  0.00    +0.000 A 
ATOM     20  C   UNL     1     -15.927   1.131  11.070  0.00  0.00    +0.000 A 
ATOM     21  C   UNL     1     -15.056   1.825  10.219  0.00  0.00    +0.000 A 
ATOM     22  C   UNL     1     -13.680   1.607  10.352  0.00  0.00    +0.000 A 
ATOM     23  C   UNL     1     -13.413   0.668  11.372  0.00  0.00    +0.000 A 
ATOM     24  N   UNL     1     -12.066   0.074  11.936  0.00  0.00    +0.000 N 
ATOM     25  C   UNL     1     -12.108   1.325  12.697  0.00  0.00    +0.000 A 
ATOM     26  C   UNL     1     -11.102   1.074  13.526  0.00  0.00    +0.000 A 
ATOM     27  C   UNL     1     -14.074   1.591  15.853  0.00  0.00    +0.000 C 
ATOM     28  O   UNL     1     -15.236   1.203  15.833  0.00  0.00    +0.000 OA
ATOM     29  N   UNL     1     -13.322   1.650  17.026  0.00  0.00    +0.000 N 
ATOM     30  C   UNL     1     -11.863   1.823  16.885  0.00  0.00    +0.000 C 
ATOM     31  H   UNL     1      -9.460  -2.764  16.073  0.00  0.00    +0.000 HD
ATOM     32  H   UNL     1     -10.105  -4.109  14.277  0.00  0.00    +0.000 HD
ATOM     33  H   UNL     1     -11.993  -4.015  12.900  0.00  0.00    +0.000 HD
ATOM     34  H   UNL     1     -12.911  -3.028  13.982  0.00  0.00    +0.000 HD
ATOM     35  H   UNL     1     -11.017  -2.394  11.551  0.00  0.00    +0.000 HD
ATOM     36  H   UNL     1     -14.293  -1.682  12.769  0.00  0.00    +0.000 HD
ATOM     37  H   UNL     1     -13.292  -1.988  10.018  0.00  0.00    +0.000 HD
ATOM     38  H   UNL     1     -10.741  -0.905   9.326  0.00  0.00    +0.000 HD
ATOM     39  H   UNL     1      -9.132   0.445  11.293  0.00  0.00    +0.000 HD
ATOM     40  H   UNL     1     -16.254   0.981  13.223  0.00  0.00    +0.000 HD
ATOM     41  H   UNL     1     -16.250   0.159  10.654  0.00  0.00    +0.000 HD
ATOM     42  H   UNL     1     -15.381   2.806   9.859  0.00  0.00    +0.000 HD
ATOM     43  H   UNL     1     -12.970   2.404  10.119  0.00  0.00    +0.000 HD
ATOM     44  H   UNL     1     -13.758   1.273  17.858  0.00  0.00    +0.000 HD
ATOM     45  H   UNL     1     -11.370   0.939  17.297  0.00  0.00    +0.000 HD
ATOM     46  H   UNL     1     -11.572   2.731  17.404  0.00  0.00    +0.000 HD
ENDROOT
BRANCH   6  47
ATOM     47  C   UNL     1      -8.392  -1.034  14.744  0.00  0.00    +0.000 C 
ATOM     48  H   UNL     1      -7.927  -0.723  13.793  0.00  0.00    +0.000 HD
ATOM     49  H   UNL     1      -8.332  -0.123  15.358  0.00  0.00    +0.000 HD
ATOM     50  H   UNL     1      -7.777  -1.811  15.194  0.00  0.00    +0.000 HD
ENDBRANCH   6  47
BRANCH   2  51
ATOM     51  N   UNL     1     -11.295  -4.657  15.868  0.00  0.00    +0.000 N 
ATOM     52  C   UNL     1     -10.161  -5.506  16.231  0.00  0.00    +0.000 C 
ATOM     53  O   UNL     1      -9.311  -5.846  15.407  0.00  0.00    +0.000 OA
BRANCH  52  54
ATOM     54  C   UNL     1      -9.820  -5.705  17.686  0.00  0.00    +0.000 A 
ATOM     55  C   UNL     1      -9.066  -4.780  18.407  0.00  0.00    +0.000 A 
ATOM     56  C   UNL     1      -8.283  -5.225  19.476  0.00  0.00    +0.000 A 
ATOM     57  C   UNL     1      -8.337  -6.559  19.883  0.00  0.00    +0.000 A 
ATOM     58  C   UNL     1      -9.274  -7.419  19.314  0.00  0.00    +0.000 A 
ATOM     59  C   UNL     1     -10.034  -6.986  18.225  0.00  0.00    +0.000 A 
ATOM     60  H   UNL     1      -8.990  -3.752  18.070  0.00  0.00    +0.000 HD
ATOM     61  H   UNL     1      -7.576  -4.546  19.947  0.00  0.00    +0.000 HD
ATOM     62  H   UNL     1      -7.648  -6.929  20.639  0.00  0.00    +0.000 HD
ATOM     63  H   UNL     1      -9.359  -8.444  19.668  0.00  0.00    +0.000 HD
ATOM     64  H   UNL     1     -10.722  -7.681  17.746  0.00  0.00    +0.000 HD
ENDBRANCH  52  54
BRANCH  51  65
ATOM     65  C   UNL     1     -12.244  -4.310  16.917  0.00  0.00    +0.000 C 
ATOM     66  H   UNL     1     -11.710  -4.267  17.868  0.00  0.00    +0.000 HD
ATOM     67  H   UNL     1     -13.021  -5.061  17.023  0.00  0.00    +0.000 HD
ATOM     68  H   UNL     1     -12.701  -3.330  16.730  0.00  0.00    +0.000 HD
ENDBRANCH  51  65
ENDBRANCH   2  51
BRANCH   1  69
ATOM     69  O   UNL     1     -11.102  -1.873  16.672  0.00  0.00    +0.000 OA
BRANCH  69  70
ATOM     70  C   UNL     1     -10.442  -1.378  17.826  0.00  0.00    +0.000 C 
ATOM     71  H   UNL     1     -10.361  -0.308  17.794  0.00  0.00    +0.000 HD
ATOM     72  H   UNL     1      -9.409  -1.728  17.840  0.00  0.00    +0.000 HD
ATOM     73  H   UNL     1     -10.914  -1.623  18.770  0.00  0.00    +0.000 HD
ENDBRANCH  69  70
ENDBRANCH   1  69
TORSDOF 6
ENDMDL
MODEL 2
REMARK VINA RESULT:    -6.987      3.019      4.136
REMARK INTER + INTRA:          -9.124
REMARK INTER:                  -8.768
REMARK INTRA:                  -0.356
REMARK UNBOUND:                -0.299
REMARK  Name = 
REMARK  6 active torsions:
REMARK  status: ('A' for Active; 'I' for Inactive)
REMARK    1  A    between atoms: C_1  and  O_2
REMARK    2  A    between atoms: O_2  and  C_3
REMARK    3  A    between atoms: C_4  and  N_5
REMARK    4  A    between atoms: N_5  and  C_6
REMARK    5  A    between atoms: C_7  and  C_9
REMARK    6  A    between atoms: C_18  and  C_19
REMARK                            x       y       z     vdW  Elec       q    Type
REMARK                         _______ _______ _______ _____ _____    ______ ____
ROOT
ATOM      1  C   UNL     1      -9.922  -0.061  18.928  0.00  0.00    +0.000 C 
ATOM      2  C   UNL     1      -9.898  -1.583  18.838  0.00  0.00    +0.000 C 
ATOM      3  C   UNL     1     -10.342  -2.094  17.351  0.00  0.00    +0.000 C 
ATOM      4  C   UNL     1      -9.546  -1.179  15.864  0.00  0.00    +0.000 C 
ATOM      5  O   UNL     1      -8.509  -0.518  16.861  0.00  0.00    +0.000 OA
ATOM      6  C   UNL     1      -9.234   0.455  17.689  0.00  0.00    +0.000 C 
ATOM      7  N   UNL     1     -10.411   0.841  16.735  0.00  0.00    +0.000 N 
ATOM      8  C   UNL     1     -11.167  -0.107  16.141  0.00  0.00    +0.000 A 
ATOM      9  C   UNL     1     -11.383  -1.723  15.258  0.00  0.00    +0.000 A 
ATOM     10  C   UNL     1     -10.131  -2.327  14.114  0.00  0.00    +0.000 A 
ATOM     11  C   UNL     1      -8.704  -1.324  13.771  0.00  0.00    +0.000 A 
ATOM     12  C   UNL     1      -8.442   0.259  14.560  0.00  0.00    +0.000 A 
ATOM     13  C   UNL     1      -9.669   1.000  15.752  0.00  0.00    +0.000 A 
ATOM     14  C   UNL     1     -10.326   2.771  15.898  0.00  0.00    +0.000 A 
ATOM     15  C   UNL     1     -11.937   2.908  16.109  0.00  0.00    +0.000 A 
ATOM     16  C   UNL     1     -12.931   2.109  15.313  0.00  0.00    +0.000 A 
ATOM     17  C   UNL     1     -12.393   1.401  14.207  0.00  0.00    +0.000 A 
ATOM     18  C   UNL     1     -12.796   0.184  13.602  0.00  0.00    +0.000 A 
ATOM     19  C   UNL     1     -13.910  -0.558  13.238  0.00  0.00    +0.000 A 
ATOM     20  C   UNL     1     -13.723  -1.202  12.001  0.00  0.00    +0.000 A 
ATOM     21  C   UNL     1     -12.732  -0.672  11.164  0.00  0.00    +0.000 A 
ATOM     22  C   UNL     1     -11.519  -0.272  11.737  0.00  0.00    +0.000 A 
ATOM     23  C   UNL     1     -11.520  -0.497  13.131  0.00  0.00    +0.000 A 
ATOM     24  N   UNL     1     -10.438  -0.229  14.245  0.00  0.00    +0.000 N 
ATOM     25  C   UNL     1     -11.032   1.108  14.168  0.00  0.00    +0.000 A 
ATOM     26  C   UNL     1     -10.430   1.643  15.223  0.00  0.00    +0.000 A 
ATOM     27  C   UNL     1     -14.135   1.946  16.056  0.00  0.00    +0.000 C 
ATOM     28  O   UNL     1     -15.086   1.180  15.956  0.00  0.00    +0.000 OA
ATOM     29  N   UNL     1     -13.961   2.787  17.155  0.00  0.00    +0.000 N 
ATOM     30  C   UNL     1     -12.638   3.420  17.318  0.00  0.00    +0.000 C 
ATOM     31  H   UNL     1      -9.273   0.228  19.759  0.00  0.00    +0.000 HD
ATOM     32  H   UNL     1      -8.845  -1.894  18.884  0.00  0.00    +0.000 HD
ATOM     33  H   UNL     1      -9.977  -3.129  17.251  0.00  0.00    +0.000 HD
ATOM     34  H   UNL     1     -11.431  -2.201  17.351  0.00  0.00    +0.000 HD
ATOM     35  H   UNL     1      -8.866  -2.017  15.539  0.00  0.00    +0.000 HD
ATOM     36  H   UNL     1     -12.423  -2.149  15.300  0.00  0.00    +0.000 HD
ATOM     37  H   UNL     1     -10.338  -3.210  13.514  0.00  0.00    +0.000 HD
ATOM     38  H   UNL     1      -7.992  -1.657  13.019  0.00  0.00    +0.000 HD
ATOM     39  H   UNL     1      -7.634   0.908  14.272  0.00  0.00    +0.000 HD
ATOM     40  H   UNL     1     -14.873  -0.517  13.726  0.00  0.00    +0.000 HD
ATOM     41  H   UNL     1     -13.650  -2.300  12.113  0.00  0.00    +0.000 HD
ATOM     42  H   UNL     1     -13.063  -0.149  10.262  0.00  0.00    +0.000 HD
ATOM     43  H   UNL     1     -10.946   0.548  11.298  0.00  0.00    +0.000 HD
ATOM     44  H   UNL     1     -14.619   2.673  17.916  0.00  0.00    +0.000 HD
ATOM     45  H   UNL     1     -12.197   3.062  18.252  0.00  0.00    +0.000 HD
ATOM     46  H   UNL     1     -12.769   4.498  17.316  0.00  0.00    +0.000 HD
ENDROOT
BRANCH   6  47
ATOM     47  C   UNL     1      -8.110   1.472  18.027  0.00  0.00    +0.000 C 
ATOM     48  H   UNL     1      -7.749   1.952  17.102  0.00  0.00    +0.000 HD
ATOM     49  H   UNL     1      -8.492   2.322  18.613  0.00  0.00    +0.000 HD
ATOM     50  H   UNL     1      -7.261   1.031  18.546  0.00  0.00    +0.000 HD
ENDBRANCH   6  47
BRANCH   2  51
ATOM     51  N   UNL     1     -10.454  -2.105  20.155  0.00  0.00    +0.000 N 
ATOM     52  C   UNL     1      -9.438  -2.176  21.204  0.00  0.00    +0.000 C 
ATOM     53  O   UNL     1      -8.265  -2.462  20.957  0.00  0.00    +0.000 OA
BRANCH  52  54
ATOM     54  C   UNL     1      -9.724  -1.573  22.555  0.00  0.00    +0.000 A 
ATOM     55  C   UNL     1      -9.402  -0.252  22.863  0.00  0.00    +0.000 A 
ATOM     56  C   UNL     1      -9.110   0.088  24.187  0.00  0.00    +0.000 A 
ATOM     57  C   UNL     1      -9.242  -0.860  25.204  0.00  0.00    +0.000 A 
ATOM     58  C   UNL     1      -9.796  -2.107  24.921  0.00  0.00    +0.000 A 
ATOM     59  C   UNL     1     -10.059  -2.458  23.594  0.00  0.00    +0.000 A 
ATOM     60  H   UNL     1      -9.260   0.477  22.072  0.00  0.00    +0.000 HD
ATOM     61  H   UNL     1      -8.711   1.073  24.418  0.00  0.00    +0.000 HD
ATOM     62  H   UNL     1      -8.909  -0.630  26.213  0.00  0.00    +0.000 HD
ATOM     63  H   UNL     1      -9.954  -2.828  25.720  0.00  0.00    +0.000 HD
ATOM     64  H   UNL     1     -10.437  -3.455  23.373  0.00  0.00    +0.000 HD
ENDBRANCH  52  54
BRANCH  51  65
ATOM     65  C   UNL     1     -11.812  -1.756  20.550  0.00  0.00    +0.000 C 
ATOM     66  H   UNL     1     -12.503  -2.455  20.073  0.00  0.00    +0.000 HD
ATOM     67  H   UNL     1     -12.087  -0.761  20.215  0.00  0.00    +0.000 HD
ATOM     68  H   UNL     1     -11.941  -1.828  21.637  0.00  0.00    +0.000 HD
ENDBRANCH  51  65
ENDBRANCH   2  51
BRANCH   1  69
ATOM     69  O   UNL     1     -11.154   0.593  19.341  0.00  0.00    +0.000 OA
BRANCH  69  70
ATOM     70  C   UNL     1     -11.141   1.729  20.190  0.00  0.00    +0.000 C 
ATOM     71  H   UNL     1     -11.395   2.619  19.647  0.00  0.00    +0.000 HD
ATOM     72  H   UNL     1     -10.126   1.910  20.548  0.00  0.00    +0.000 HD
ATOM     73  H   UNL     1     -11.815   1.682  21.038  0.00  0.00    +0.000 HD
ENDBRANCH  69  70
ENDBRANCH   1  69
TORSDOF 6
ENDMDL
MODEL 3
REMARK VINA RESULT:    -6.982      2.040      2.883
REMARK INTER + INTRA:          -9.118
REMARK INTER:                  -8.827
REMARK INTRA:                  -0.291
REMARK UNBOUND:                -0.299
REMARK  Name = 
REMARK  6 active torsions:
REMARK  status: ('A' for Active; 'I' for Inactive)
REMARK    1  A    between atoms: C_1  and  O_2
REMARK    2  A    between atoms: O_2  and  C_3
REMARK    3  A    between atoms: C_4  and  N_5
REMARK    4  A    between atoms: N_5  and  C_6
REMARK    5  A    between atoms: C_7  and  C_9
REMARK    6  A    between atoms: C_18  and  C_19
REMARK                            x       y       z     vdW  Elec       q    Type
REMARK                         _______ _______ _______ _____ _____    ______ ____
ROOT
ATOM      1  C   UNL     1     -10.278  -1.721  17.172  0.00  0.00    +0.000 C 
ATOM      2  C   UNL     1     -11.266  -2.663  16.492  0.00  0.00    +0.000 C 
ATOM      3  C   UNL     1     -12.458  -1.830  15.745  0.00  0.00    +0.000 C 
ATOM      4  C   UNL     1     -11.911  -0.322  14.690  0.00  0.00    +0.000 C 
ATOM      5  O   UNL     1     -10.414  -0.829  14.793  0.00  0.00    +0.000 OA
ATOM      6  C   UNL     1      -9.963  -0.634  16.177  0.00  0.00    +0.000 C 
ATOM      7  N   UNL     1     -10.869   0.561  16.620  0.00  0.00    +0.000 N 
ATOM      8  C   UNL     1     -12.207   0.528  16.435  0.00  0.00    +0.000 A 
ATOM      9  C   UNL     1     -13.718   0.148  15.430  0.00  0.00    +0.000 A 
ATOM     10  C   UNL     1     -13.703   0.311  13.637  0.00  0.00    +0.000 A 
ATOM     11  C   UNL     1     -12.239   0.915  12.827  0.00  0.00    +0.000 A 
ATOM     12  C   UNL     1     -10.754   1.330  13.732  0.00  0.00    +0.000 A 
ATOM     13  C   UNL     1     -10.648   1.217  15.590  0.00  0.00    +0.000 A 
ATOM     14  C   UNL     1      -9.904   2.416  16.854  0.00  0.00    +0.000 A 
ATOM     15  C   UNL     1     -10.815   2.697  18.177  0.00  0.00    +0.000 A 
ATOM     16  C   UNL     1     -12.293   2.959  18.105  0.00  0.00    +0.000 A 
ATOM     17  C   UNL     1     -12.807   3.177  16.800  0.00  0.00    +0.000 A 
ATOM     18  C   UNL     1     -14.083   2.901  16.250  0.00  0.00    +0.000 A 
ATOM     19  C   UNL     1     -15.441   2.913  16.534  0.00  0.00    +0.000 A 
ATOM     20  C   UNL     1     -16.198   3.342  15.429  0.00  0.00    +0.000 A 
ATOM     21  C   UNL     1     -15.518   4.085  14.454  0.00  0.00    +0.000 A 
ATOM     22  C   UNL     1     -14.232   3.676  14.083  0.00  0.00    +0.000 A 
ATOM     23  C   UNL     1     -13.843   2.521  14.795  0.00  0.00    +0.000 A 
ATOM     24  N   UNL     1     -12.522   1.661  14.775  0.00  0.00    +0.000 N 
ATOM     25  C   UNL     1     -12.097   2.723  15.692  0.00  0.00    +0.000 A 
ATOM     26  C   UNL     1     -10.950   2.184  16.085  0.00  0.00    +0.000 A 
ATOM     27  C   UNL     1     -12.919   2.571  19.324  0.00  0.00    +0.000 C 
ATOM     28  O   UNL     1     -14.081   2.342  19.635  0.00  0.00    +0.000 OA
ATOM     29  N   UNL     1     -11.846   2.293  20.171  0.00  0.00    +0.000 N 
ATOM     30  C   UNL     1     -10.495   2.310  19.578  0.00  0.00    +0.000 C 
ATOM     31  H   UNL     1      -9.343  -2.270  17.305  0.00  0.00    +0.000 HD
ATOM     32  H   UNL     1     -10.742  -3.125  15.643  0.00  0.00    +0.000 HD
ATOM     33  H   UNL     1     -12.911  -2.515  15.011  0.00  0.00    +0.000 HD
ATOM     34  H   UNL     1     -13.255  -1.668  16.478  0.00  0.00    +0.000 HD
ATOM     35  H   UNL     1     -12.113  -0.784  13.683  0.00  0.00    +0.000 HD
ATOM     36  H   UNL     1     -14.670   0.060  16.023  0.00  0.00    +0.000 HD
ATOM     37  H   UNL     1     -14.633   0.208  13.084  0.00  0.00    +0.000 HD
ATOM     38  H   UNL     1     -12.263   1.087  11.754  0.00  0.00    +0.000 HD
ATOM     39  H   UNL     1      -9.910   1.793  13.252  0.00  0.00    +0.000 HD
ATOM     40  H   UNL     1     -15.872   2.792  17.516  0.00  0.00    +0.000 HD
ATOM     41  H   UNL     1     -16.806   2.525  15.000  0.00  0.00    +0.000 HD
ATOM     42  H   UNL     1     -15.751   5.152  14.381  0.00  0.00    +0.000 HD
ATOM     43  H   UNL     1     -13.493   4.410  13.752  0.00  0.00    +0.000 HD
ATOM     44  H   UNL     1     -12.068   1.808  21.032  0.00  0.00    +0.000 HD
ATOM     45  H   UNL     1     -10.071   1.306  19.658  0.00  0.00    +0.000 HD
ATOM     46  H   UNL     1      -9.897   3.048  20.103  0.00  0.00    +0.000 HD
ENDROOT
BRANCH   6  47
ATOM     47  C   UNL     1      -8.434  -0.448  15.980  0.00  0.00    +0.000 C 
ATOM     48  H   UNL     1      -8.079   0.403  16.585  0.00  0.00    +0.000 HD
ATOM     49  H   UNL     1      -7.864  -1.296  16.390  0.00  0.00    +0.000 HD
ATOM     50  H   UNL     1      -8.142  -0.286  14.944  0.00  0.00    +0.000 HD
ENDBRANCH   6  47
BRANCH   2  51
ATOM     51  N   UNL     1     -11.468  -3.839  17.435  0.00  0.00    +0.000 N 
ATOM     52  C   UNL     1     -10.454  -4.878  17.260  0.00  0.00    +0.000 C 
ATOM     53  O   UNL     1      -9.976  -5.143  16.156  0.00  0.00    +0.000 OA
BRANCH  52  54
ATOM     54  C   UNL     1      -9.727  -5.416  18.465  0.00  0.00    +0.000 A 
ATOM     55  C   UNL     1      -8.649  -4.746  19.043  0.00  0.00    +0.000 A 
ATOM     56  C   UNL     1      -7.663  -5.483  19.704  0.00  0.00    +0.000 A 
ATOM     57  C   UNL     1      -7.809  -6.862  19.875  0.00  0.00    +0.000 A 
ATOM     58  C   UNL     1      -9.001  -7.482  19.508  0.00  0.00    +0.000 A 
ATOM     59  C   UNL     1      -9.974  -6.753  18.820  0.00  0.00    +0.000 A 
ATOM     60  H   UNL     1      -8.512  -3.682  18.879  0.00  0.00    +0.000 HD
ATOM     61  H   UNL     1      -6.745  -4.995  20.024  0.00  0.00    +0.000 HD
ATOM     62  H   UNL     1      -6.993  -7.451  20.287  0.00  0.00    +0.000 HD
ATOM     63  H   UNL     1      -9.141  -8.545  19.692  0.00  0.00    +0.000 HD
ATOM     64  H   UNL     1     -10.878  -7.258  18.484  0.00  0.00    +0.000 HD
ENDBRANCH  52  54
BRANCH  51  65
ATOM     65  C   UNL     1     -11.968  -3.602  18.783  0.00  0.00    +0.000 C 
ATOM     66  H   UNL     1     -11.485  -4.307  19.462  0.00  0.00    +0.000 HD
ATOM     67  H   UNL     1     -13.037  -3.776  18.853  0.00  0.00    +0.000 HD
ATOM     68  H   UNL     1     -11.738  -2.583  19.118  0.00  0.00    +0.000 HD
ENDBRANCH  51  65
ENDBRANCH   2  51
BRANCH   1  69
ATOM     69  O   UNL     1     -10.529  -1.327  18.550  0.00  0.00    +0.000 OA
BRANCH  69  70
ATOM     70  C   UNL     1      -9.467  -1.154  19.475  0.00  0.00    +0.000 C 
ATOM     71  H   UNL     1      -8.770  -1.967  19.417  0.00  0.00    +0.000 HD
ATOM     72  H   UNL     1      -9.854  -1.200  20.494  0.00  0.00    +0.000 HD
ATOM     73  H   UNL     1      -8.891  -0.244  19.353  0.00  0.00    +0.000 HD
ENDBRANCH  69  70
ENDBRANCH   1  69
TORSDOF 6
ENDMDL
MODEL 4
REMARK VINA RESULT:    -6.841      3.175      6.111
REMARK INTER + INTRA:          -8.939
REMARK INTER:                  -8.517
REMARK INTRA:                  -0.422
REMARK UNBOUND:                -0.299
REMARK  Name = 
REMARK  6 active torsions:
REMARK  status: ('A' for Active; 'I' for Inactive)
REMARK    1  A    between atoms: C_1  and  O_2
REMARK    2  A    between atoms: O_2  and  C_3
REMARK    3  A    between atoms: C_4  and  N_5
REMARK    4  A    between atoms: N_5  and  C_6
REMARK    5  A    between atoms: C_7  and  C_9
REMARK    6  A    between atoms: C_18  and  C_19
REMARK                            x       y       z     vdW  Elec       q    Type
REMARK                         _______ _______ _______ _____ _____    ______ ____
ROOT
ATOM      1  C   UNL     1     -10.577  -4.556  17.326  0.00  0.00    +0.000 C 
ATOM      2  C   UNL     1      -9.904  -4.687  18.688  0.00  0.00    +0.000 C 
ATOM      3  C   UNL     1      -9.427  -3.231  19.254  0.00  0.00    +0.000 C 
ATOM      4  C   UNL     1     -10.700  -1.802  19.110  0.00  0.00    +0.000 C 
ATOM      5  O   UNL     1     -11.819  -2.871  18.773  0.00  0.00    +0.000 OA
ATOM      6  C   UNL     1     -11.546  -3.406  17.433  0.00  0.00    +0.000 C 
ATOM      7  N   UNL     1     -10.783  -2.206  16.782  0.00  0.00    +0.000 N 
ATOM      8  C   UNL     1      -9.739  -1.621  17.408  0.00  0.00    +0.000 A 
ATOM      9  C   UNL     1      -8.892  -0.950  18.915  0.00  0.00    +0.000 A 
ATOM     10  C   UNL     1      -9.831  -0.154  20.227  0.00  0.00    +0.000 A 
ATOM     11  C   UNL     1     -11.587   0.057  20.041  0.00  0.00    +0.000 A 
ATOM     12  C   UNL     1     -12.468  -0.536  18.603  0.00  0.00    +0.000 A 
ATOM     13  C   UNL     1     -11.609  -1.365  17.172  0.00  0.00    +0.000 A 
ATOM     14  C   UNL     1     -11.833  -1.136  15.304  0.00  0.00    +0.000 A 
ATOM     15  C   UNL     1     -10.455  -1.025  14.440  0.00  0.00    +0.000 A 
ATOM     16  C   UNL     1      -9.290  -0.179  14.874  0.00  0.00    +0.000 A 
ATOM     17  C   UNL     1      -9.549   0.698  15.959  0.00  0.00    +0.000 A 
ATOM     18  C   UNL     1      -8.693   1.190  16.976  0.00  0.00    +0.000 A 
ATOM     19  C   UNL     1      -7.405   1.645  17.218  0.00  0.00    +0.000 A 
ATOM     20  C   UNL     1      -7.397   2.723  18.123  0.00  0.00    +0.000 A 
ATOM     21  C   UNL     1      -8.600   3.429  18.265  0.00  0.00    +0.000 A 
ATOM     22  C   UNL     1      -9.795   2.703  18.321  0.00  0.00    +0.000 A 
ATOM     23  C   UNL     1      -9.551   1.317  18.227  0.00  0.00    +0.000 A 
ATOM     24  N   UNL     1     -10.515   0.070  18.229  0.00  0.00    +0.000 N 
ATOM     25  C   UNL     1     -10.617   0.443  16.815  0.00  0.00    +0.000 A 
ATOM     26  C   UNL     1     -11.289  -0.619  16.389  0.00  0.00    +0.000 A 
ATOM     27  C   UNL     1      -8.079  -0.702  14.337  0.00  0.00    +0.000 C 
ATOM     28  O   UNL     1      -6.898  -0.536  14.616  0.00  0.00    +0.000 OA
ATOM     29  N   UNL     1      -8.510  -1.685  13.447  0.00  0.00    +0.000 N 
ATOM     30  C   UNL     1      -9.952  -1.999  13.433  0.00  0.00    +0.000 C 
ATOM     31  H   UNL     1     -11.199  -5.443  17.182  0.00  0.00    +0.000 HD
ATOM     32  H   UNL     1     -10.684  -4.970  19.409  0.00  0.00    +0.000 HD
ATOM     33  H   UNL     1      -9.282  -3.346  20.340  0.00  0.00    +0.000 HD
ATOM     34  H   UNL     1      -8.418  -3.045  18.874  0.00  0.00    +0.000 HD
ATOM     35  H   UNL     1     -10.946  -1.730  20.207  0.00  0.00    +0.000 HD
ATOM     36  H   UNL     1      -7.774  -0.859  18.827  0.00  0.00    +0.000 HD
ATOM     37  H   UNL     1      -9.302   0.344  21.036  0.00  0.00    +0.000 HD
ATOM     38  H   UNL     1     -12.136   0.610  20.800  0.00  0.00    +0.000 HD
ATOM     39  H   UNL     1     -13.510  -0.314  18.446  0.00  0.00    +0.000 HD
ATOM     40  H   UNL     1      -6.527   1.354  16.662  0.00  0.00    +0.000 HD
ATOM     41  H   UNL     1      -6.944   2.447  19.092  0.00  0.00    +0.000 HD
ATOM     42  H   UNL     1      -8.640   4.441  17.851  0.00  0.00    +0.000 HD
ATOM     43  H   UNL     1     -10.723   3.140  17.943  0.00  0.00    +0.000 HD
ATOM     44  H   UNL     1      -7.801  -2.320  13.101  0.00  0.00    +0.000 HD
ATOM     45  H   UNL     1     -10.081  -3.039  13.743  0.00  0.00    +0.000 HD
ATOM     46  H   UNL     1     -10.334  -1.821  12.433  0.00  0.00    +0.000 HD
ENDROOT
BRANCH   6  47
ATOM     47  C   UNL     1     -12.972  -3.799  16.960  0.00  0.00    +0.000 C 
ATOM     48  H   UNL     1     -13.118  -3.489  15.912  0.00  0.00    +0.000 HD
ATOM     49  H   UNL     1     -13.100  -4.891  16.914  0.00  0.00    +0.000 HD
ATOM     50  H   UNL     1     -13.768  -3.369  17.565  0.00  0.00    +0.000 HD
ENDBRANCH   6  47
BRANCH   2  51
ATOM     51  N   UNL     1      -9.041  -5.939  18.629  0.00  0.00    +0.000 N 
ATOM     52  C   UNL     1      -9.834  -7.167  18.603  0.00  0.00    +0.000 C 
ATOM     53  O   UNL     1     -10.897  -7.269  19.217  0.00  0.00    +0.000 OA
BRANCH  52  54
ATOM     54  C   UNL     1      -9.545  -8.215  17.559  0.00  0.00    +0.000 A 
ATOM     55  C   UNL     1     -10.182  -8.225  16.319  0.00  0.00    +0.000 A 
ATOM     56  C   UNL     1     -10.370  -9.442  15.659  0.00  0.00    +0.000 A 
ATOM     57  C   UNL     1      -9.834 -10.619  16.185  0.00  0.00    +0.000 A 
ATOM     58  C   UNL     1      -8.994 -10.562  17.295  0.00  0.00    +0.000 A 
ATOM     59  C   UNL     1      -8.830  -9.352  17.973  0.00  0.00    +0.000 A 
ATOM     60  H   UNL     1     -10.635  -7.320  15.927  0.00  0.00    +0.000 HD
ATOM     61  H   UNL     1     -10.996  -9.485  14.771  0.00  0.00    +0.000 HD
ATOM     62  H   UNL     1     -10.074 -11.579  15.733  0.00  0.00    +0.000 HD
ATOM     63  H   UNL     1      -8.528 -11.470  17.673  0.00  0.00    +0.000 HD
ATOM     64  H   UNL     1      -8.220  -9.326  18.874  0.00  0.00    +0.000 HD
ENDBRANCH  52  54
BRANCH  51  65
ATOM     65  C   UNL     1      -7.799  -5.919  17.867  0.00  0.00    +0.000 C 
ATOM     66  H   UNL     1      -8.000  -5.483  16.887  0.00  0.00    +0.000 HD
ATOM     67  H   UNL     1      -7.414  -6.919  17.697  0.00  0.00    +0.000 HD
ATOM     68  H   UNL     1      -7.036  -5.310  18.368  0.00  0.00    +0.000 HD
ENDBRANCH  51  65
ENDBRANCH   2  51
BRANCH   1  69
ATOM     69  O   UNL     1      -9.751  -4.638  16.131  0.00  0.00    +0.000 OA
BRANCH  69  70
ATOM     70  C   UNL     1     -10.275  -5.110  14.900  0.00  0.00    +0.000 C 
ATOM     71  H   UNL     1      -9.729  -4.706  14.069  0.00  0.00    +0.000 HD
ATOM     72  H   UNL     1     -11.292  -4.738  14.765  0.00  0.00    +0.000 HD
ATOM     73  H   UNL     1     -10.270  -6.187  14.778  0.00  0.00    +0.000 HD
ENDBRANCH  69  70
ENDBRANCH   1  69
TORSDOF 6
ENDMDL
MODEL 5
REMARK VINA RESULT:    -6.832      3.700      5.868
REMARK INTER + INTRA:          -8.928
REMARK INTER:                  -8.434
REMARK INTRA:                  -0.494
REMARK UNBOUND:                -0.299
REMARK  Name = 
REMARK  6 active torsions:
REMARK  status: ('A' for Active; 'I' for Inactive)
REMARK    1  A    between atoms: C_1  and  O_2
REMARK    2  A    between atoms: O_2  and  C_3
REMARK    3  A    between atoms: C_4  and  N_5
REMARK    4  A    between atoms: N_5  and  C_6
REMARK    5  A    between atoms: C_7  and  C_9
REMARK    6  A    between atoms: C_18  and  C_19
REMARK                            x       y       z     vdW  Elec       q    Type
REMARK                         _______ _______ _______ _____ _____    ______ ____
ROOT
ATOM      1  C   UNL     1     -11.457   2.268  19.869  0.00  0.00    +0.000 C 
ATOM      2  C   UNL     1     -10.333   1.423  20.460  0.00  0.00    +0.000 C 
ATOM      3  C   UNL     1      -9.471   0.683  19.286  0.00  0.00    +0.000 C 
ATOM      4  C   UNL     1      -8.971   1.767  17.784  0.00  0.00    +0.000 C 
ATOM      5  O   UNL     1      -9.392   3.053  18.607  0.00  0.00    +0.000 OA
ATOM      6  C   UNL     1     -10.855   3.052  18.731  0.00  0.00    +0.000 C 
ATOM      7  N   UNL     1     -11.263   2.245  17.456  0.00  0.00    +0.000 N 
ATOM      8  C   UNL     1     -10.695   1.053  17.174  0.00  0.00    +0.000 A 
ATOM      9  C   UNL     1      -9.237  -0.088  17.061  0.00  0.00    +0.000 A 
ATOM     10  C   UNL     1      -7.605   0.535  16.626  0.00  0.00    +0.000 A 
ATOM     11  C   UNL     1      -7.405   2.257  16.229  0.00  0.00    +0.000 A 
ATOM     12  C   UNL     1      -8.769   3.411  16.286  0.00  0.00    +0.000 A 
ATOM     13  C   UNL     1     -10.508   2.888  16.709  0.00  0.00    +0.000 A 
ATOM     14  C   UNL     1     -12.160   3.354  15.908  0.00  0.00    +0.000 A 
ATOM     15  C   UNL     1     -13.191   2.116  15.651  0.00  0.00    +0.000 A 
ATOM     16  C   UNL     1     -12.750   0.800  15.072  0.00  0.00    +0.000 A 
ATOM     17  C   UNL     1     -11.431   0.779  14.548  0.00  0.00    +0.000 A 
ATOM     18  C   UNL     1     -10.488  -0.274  14.457  0.00  0.00    +0.000 A 
ATOM     19  C   UNL     1     -10.362  -1.632  14.201  0.00  0.00    +0.000 A 
ATOM     20  C   UNL     1      -9.204  -1.913  13.452  0.00  0.00    +0.000 A 
ATOM     21  C   UNL     1      -8.653  -0.847  12.728  0.00  0.00    +0.000 A 
ATOM     22  C   UNL     1      -8.592   0.412  13.339  0.00  0.00    +0.000 A 
ATOM     23  C   UNL     1      -9.120   0.366  14.647  0.00  0.00    +0.000 A 
ATOM     24  N   UNL     1      -9.300   1.473  15.754  0.00  0.00    +0.000 N 
ATOM     25  C   UNL     1     -10.506   1.733  14.963  0.00  0.00    +0.000 A 
ATOM     26  C   UNL     1     -11.090   2.593  15.789  0.00  0.00    +0.000 A 
ATOM     27  C   UNL     1     -13.622  -0.240  15.504  0.00  0.00    +0.000 C 
ATOM     28  O   UNL     1     -13.525  -1.461  15.525  0.00  0.00    +0.000 OA
ATOM     29  N   UNL     1     -14.663   0.442  16.133  0.00  0.00    +0.000 N 
ATOM     30  C   UNL     1     -14.506   1.899  16.311  0.00  0.00    +0.000 C 
ATOM     31  H   UNL     1     -11.734   3.013  20.618  0.00  0.00    +0.000 HD
ATOM     32  H   UNL     1      -9.595   2.118  20.884  0.00  0.00    +0.000 HD
ATOM     33  H   UNL     1      -8.507   0.394  19.736  0.00  0.00    +0.000 HD
ATOM     34  H   UNL     1      -9.957  -0.275  19.075  0.00  0.00    +0.000 HD
ATOM     35  H   UNL     1      -7.873   1.836  18.028  0.00  0.00    +0.000 HD
ATOM     36  H   UNL     1      -9.495  -1.182  17.037  0.00  0.00    +0.000 HD
ATOM     37  H   UNL     1      -6.797  -0.168  16.441  0.00  0.00    +0.000 HD
ATOM     38  H   UNL     1      -6.434   2.611  15.890  0.00  0.00    +0.000 HD
ATOM     39  H   UNL     1      -8.666   4.427  15.945  0.00  0.00    +0.000 HD
ATOM     40  H   UNL     1     -11.127  -2.373  14.379  0.00  0.00    +0.000 HD
ATOM     41  H   UNL     1      -8.452  -2.465  14.044  0.00  0.00    +0.000 HD
ATOM     42  H   UNL     1      -8.747  -0.877  11.638  0.00  0.00    +0.000 HD
ATOM     43  H   UNL     1      -8.656   1.321  12.735  0.00  0.00    +0.000 HD
ATOM     44  H   UNL     1     -15.297  -0.120  16.688  0.00  0.00    +0.000 HD
ATOM     45  H   UNL     1     -14.488   2.114  17.383  0.00  0.00    +0.000 HD
ATOM     46  H   UNL     1     -15.328   2.398  15.809  0.00  0.00    +0.000 HD
ENDROOT
BRANCH   6  47
ATOM     47  C   UNL     1     -11.156   4.571  18.847  0.00  0.00    +0.000 C 
ATOM     48  H   UNL     1     -11.598   4.939  17.906  0.00  0.00    +0.000 HD
ATOM     49  H   UNL     1     -11.945   4.776  19.587  0.00  0.00    +0.000 HD
ATOM     50  H   UNL     1     -10.281   5.175  19.080  0.00  0.00    +0.000 HD
ENDBRANCH   6  47
BRANCH   2  51
ATOM     51  N   UNL     1     -10.901   0.748  21.700  0.00  0.00    +0.000 N 
ATOM     52  C   UNL     1     -11.013  -0.701  21.547  0.00  0.00    +0.000 C 
ATOM     53  O   UNL     1     -11.295  -1.223  20.467  0.00  0.00    +0.000 OA
BRANCH  52  54
ATOM     54  C   UNL     1     -10.459  -1.605  22.618  0.00  0.00    +0.000 A 
ATOM     55  C   UNL     1     -11.273  -2.205  23.579  0.00  0.00    +0.000 A 
ATOM     56  C   UNL     1     -10.738  -2.502  24.835  0.00  0.00    +0.000 A 
ATOM     57  C   UNL     1      -9.380  -2.297  25.090  0.00  0.00    +0.000 A 
ATOM     58  C   UNL     1      -8.529  -1.927  24.052  0.00  0.00    +0.000 A 
ATOM     59  C   UNL     1      -9.066  -1.600  22.804  0.00  0.00    +0.000 A 
ATOM     60  H   UNL     1     -12.335  -2.329  23.399  0.00  0.00    +0.000 HD
ATOM     61  H   UNL     1     -11.394  -2.826  25.640  0.00  0.00    +0.000 HD
ATOM     62  H   UNL     1      -8.988  -2.421  26.097  0.00  0.00    +0.000 HD
ATOM     63  H   UNL     1      -7.461  -1.822  24.233  0.00  0.00    +0.000 HD
ATOM     64  H   UNL     1      -8.402  -1.255  22.013  0.00  0.00    +0.000 HD
ENDBRANCH  52  54
BRANCH  51  65
ATOM     65  C   UNL     1     -10.562   1.267  23.019  0.00  0.00    +0.000 C 
ATOM     66  H   UNL     1      -9.480   1.401  23.071  0.00  0.00    +0.000 HD
ATOM     67  H   UNL     1     -10.834   0.572  23.807  0.00  0.00    +0.000 HD
ATOM     68  H   UNL     1     -11.042   2.236  23.200  0.00  0.00    +0.000 HD
ENDBRANCH  51  65
ENDBRANCH   2  51
BRANCH   1  69
ATOM     69  O   UNL     1     -12.754   1.645  19.651  0.00  0.00    +0.000 OA
BRANCH  69  70
ATOM     70  C   UNL     1     -13.960   2.306  20.000  0.00  0.00    +0.000 C 
ATOM     71  H   UNL     1     -14.189   2.165  21.040  0.00  0.00    +0.000 HD
ATOM     72  H   UNL     1     -14.799   1.847  19.474  0.00  0.00    +0.000 HD
ATOM     73  H   UNL     1     -13.970   3.375  19.824  0.00  0.00    +0.000 HD
ENDBRANCH  69  70
ENDBRANCH   1  69
TORSDOF 6
ENDMDL
MODEL 6
REMARK VINA RESULT:    -6.797     10.709     13.080
REMARK INTER + INTRA:          -8.884
REMARK INTER:                  -8.627
REMARK INTRA:                  -0.257
REMARK UNBOUND:                -0.299
REMARK  Name = 
REMARK  6 active torsions:
REMARK  status: ('A' for Active; 'I' for Inactive)
REMARK    1  A    between atoms: C_1  and  O_2
REMARK    2  A    between atoms: O_2  and  C_3
REMARK    3  A    between atoms: C_4  and  N_5
REMARK    4  A    between atoms: N_5  and  C_6
REMARK    5  A    between atoms: C_7  and  C_9
REMARK    6  A    between atoms: C_18  and  C_19
REMARK                            x       y       z     vdW  Elec       q    Type
REMARK                         _______ _______ _______ _____ _____    ______ ____
ROOT
ATOM      1  C   UNL     1       3.091   0.502  15.631  0.00  0.00    +0.000 C 
ATOM      2  C   UNL     1       2.504  -0.798  16.172  0.00  0.00    +0.000 C 
ATOM      3  C   UNL     1       0.890  -0.670  16.391  0.00  0.00    +0.000 C 
ATOM      4  C   UNL     1      -0.103   0.139  14.962  0.00  0.00    +0.000 C 
ATOM      5  O   UNL     1       1.174   0.001  14.035  0.00  0.00    +0.000 OA
ATOM      6  C   UNL     1       2.186   0.952  14.513  0.00  0.00    +0.000 C 
ATOM      7  N   UNL     1       1.282   2.043  15.173  0.00  0.00    +0.000 N 
ATOM      8  C   UNL     1       0.320   1.710  16.061  0.00  0.00    +0.000 A 
ATOM      9  C   UNL     1      -1.069   0.633  16.653  0.00  0.00    +0.000 A 
ATOM     10  C   UNL     1      -2.191  -0.154  15.486  0.00  0.00    +0.000 A 
ATOM     11  C   UNL     1      -2.008   0.165  13.746  0.00  0.00    +0.000 A 
ATOM     12  C   UNL     1      -0.712   1.216  13.104  0.00  0.00    +0.000 A 
ATOM     13  C   UNL     1       0.504   2.098  14.208  0.00  0.00    +0.000 A 
ATOM     14  C   UNL     1       1.151   3.878  14.149  0.00  0.00    +0.000 A 
ATOM     15  C   UNL     1       1.202   4.655  15.582  0.00  0.00    +0.000 A 
ATOM     16  C   UNL     1       0.073   4.604  16.573  0.00  0.00    +0.000 A 
ATOM     17  C   UNL     1      -1.133   4.033  16.090  0.00  0.00    +0.000 A 
ATOM     18  C   UNL     1      -2.152   3.315  16.765  0.00  0.00    +0.000 A 
ATOM     19  C   UNL     1      -2.872   3.259  17.949  0.00  0.00    +0.000 A 
ATOM     20  C   UNL     1      -4.221   2.930  17.721  0.00  0.00    +0.000 A 
ATOM     21  C   UNL     1      -4.710   3.158  16.427  0.00  0.00    +0.000 A 
ATOM     22  C   UNL     1      -3.896   2.824  15.339  0.00  0.00    +0.000 A 
ATOM     23  C   UNL     1      -2.667   2.282  15.773  0.00  0.00    +0.000 A 
ATOM     24  N   UNL     1      -1.407   1.756  14.987  0.00  0.00    +0.000 N 
ATOM     25  C   UNL     1      -1.105   3.190  14.983  0.00  0.00    +0.000 A 
ATOM     26  C   UNL     1       0.131   3.120  14.505  0.00  0.00    +0.000 A 
ATOM     27  C   UNL     1       0.571   4.810  17.892  0.00  0.00    +0.000 C 
ATOM     28  O   UNL     1       0.109   4.596  19.006  0.00  0.00    +0.000 OA
ATOM     29  N   UNL     1       1.899   5.183  17.689  0.00  0.00    +0.000 N 
ATOM     30  C   UNL     1       2.420   5.103  16.309  0.00  0.00    +0.000 C 
ATOM     31  H   UNL     1       4.042   0.255  15.151  0.00  0.00    +0.000 HD
ATOM     32  H   UNL     1       2.569  -1.542  15.367  0.00  0.00    +0.000 HD
ATOM     33  H   UNL     1       0.495  -1.698  16.439  0.00  0.00    +0.000 HD
ATOM     34  H   UNL     1       0.725  -0.281  17.401  0.00  0.00    +0.000 HD
ATOM     35  H   UNL     1      -0.604  -0.802  14.598  0.00  0.00    +0.000 HD
ATOM     36  H   UNL     1      -1.295   0.715  17.751  0.00  0.00    +0.000 HD
ATOM     37  H   UNL     1      -3.070  -0.673  15.859  0.00  0.00    +0.000 HD
ATOM     38  H   UNL     1      -2.738  -0.248  13.054  0.00  0.00    +0.000 HD
ATOM     39  H   UNL     1      -0.669   1.490  12.064  0.00  0.00    +0.000 HD
ATOM     40  H   UNL     1      -2.516   3.597  18.911  0.00  0.00    +0.000 HD
ATOM     41  H   UNL     1      -4.473   1.925  18.105  0.00  0.00    +0.000 HD
ATOM     42  H   UNL     1      -5.419   3.981  16.296  0.00  0.00    +0.000 HD
ATOM     43  H   UNL     1      -3.965   3.388  14.405  0.00  0.00    +0.000 HD
ATOM     44  H   UNL     1       2.495   5.185  18.507  0.00  0.00    +0.000 HD
ATOM     45  H   UNL     1       3.227   4.367  16.288  0.00  0.00    +0.000 HD
ATOM     46  H   UNL     1       2.761   6.090  16.012  0.00  0.00    +0.000 HD
ENDROOT
BRANCH   6  47
ATOM     47  C   UNL     1       2.974   1.247  13.208  0.00  0.00    +0.000 C 
ATOM     48  H   UNL     1       2.989   2.333  13.017  0.00  0.00    +0.000 HD
ATOM     49  H   UNL     1       4.041   1.000  13.311  0.00  0.00    +0.000 HD
ATOM     50  H   UNL     1       2.572   0.744  12.330  0.00  0.00    +0.000 HD
ENDBRANCH   6  47
BRANCH   2  51
ATOM     51  N   UNL     1       3.496  -1.332  17.195  0.00  0.00    +0.000 N 
ATOM     52  C   UNL     1       2.840  -1.846  18.396  0.00  0.00    +0.000 C 
ATOM     53  O   UNL     1       1.815  -1.334  18.849  0.00  0.00    +0.000 OA
BRANCH  52  54
ATOM     54  C   UNL     1       3.207  -3.213  18.914  0.00  0.00    +0.000 A 
ATOM     55  C   UNL     1       4.280  -3.416  19.782  0.00  0.00    +0.000 A 
ATOM     56  C   UNL     1       4.951  -4.642  19.760  0.00  0.00    +0.000 A 
ATOM     57  C   UNL     1       4.487  -5.686  18.956  0.00  0.00    +0.000 A 
ATOM     58  C   UNL     1       3.277  -5.553  18.279  0.00  0.00    +0.000 A 
ATOM     59  C   UNL     1       2.621  -4.320  18.275  0.00  0.00    +0.000 A 
ATOM     60  H   UNL     1       4.667  -2.597  20.378  0.00  0.00    +0.000 HD
ATOM     61  H   UNL     1       5.878  -4.761  20.316  0.00  0.00    +0.000 HD
ATOM     62  H   UNL     1       5.071  -6.598  18.854  0.00  0.00    +0.000 HD
ATOM     63  H   UNL     1       2.883  -6.385  17.698  0.00  0.00    +0.000 HD
ATOM     64  H   UNL     1       1.707  -4.205  17.696  0.00  0.00    +0.000 HD
ENDBRANCH  52  54
BRANCH  51  65
ATOM     65  C   UNL     1       4.703  -2.009  16.739  0.00  0.00    +0.000 C 
ATOM     66  H   UNL     1       4.549  -3.086  16.823  0.00  0.00    +0.000 HD
ATOM     67  H   UNL     1       5.561  -1.762  17.357  0.00  0.00    +0.000 HD
ATOM     68  H   UNL     1       4.921  -1.769  15.691  0.00  0.00    +0.000 HD
ENDBRANCH  51  65
ENDBRANCH   2  51
BRANCH   1  69
ATOM     69  O   UNL     1       3.548   1.506  16.580  0.00  0.00    +0.000 OA
BRANCH  69  70
ATOM     70  C   UNL     1       4.859   2.045  16.512  0.00  0.00    +0.000 C 
ATOM     71  H   UNL     1       4.837   3.072  16.201  0.00  0.00    +0.000 HD
ATOM     72  H   UNL     1       5.427   1.537  15.732  0.00  0.00    +0.000 HD
ATOM     73  H   UNL     1       5.420   2.015  17.439  0.00  0.00    +0.000 HD
ENDBRANCH  69  70
ENDBRANCH   1  69
TORSDOF 6
ENDMDL
MODEL 7
REMARK VINA RESULT:    -6.723      3.147      7.573
REMARK INTER + INTRA:          -8.790
REMARK INTER:                  -8.228
REMARK INTRA:                  -0.562
REMARK UNBOUND:                -0.299
REMARK  Name = 
REMARK  6 active torsions:
REMARK  status: ('A' for Active; 'I' for Inactive)
REMARK    1  A    between atoms: C_1  and  O_2
REMARK    2  A    between atoms: O_2  and  C_3
REMARK    3  A    between atoms: C_4  and  N_5
REMARK    4  A    between atoms: N_5  and  C_6
REMARK    5  A    between atoms: C_7  and  C_9
REMARK    6  A    between atoms: C_18  and  C_19
REMARK                            x       y       z     vdW  Elec       q    Type
REMARK                         _______ _______ _______ _____ _____    ______ ____
ROOT
ATOM      1  C   UNL     1     -13.500   3.316  15.100  0.00  0.00    +0.000 C 
ATOM      2  C   UNL     1     -14.661   2.506  15.668  0.00  0.00    +0.000 C 
ATOM      3  C   UNL     1     -14.347   0.904  15.609  0.00  0.00    +0.000 C 
ATOM      4  C   UNL     1     -12.605   0.355  16.199  0.00  0.00    +0.000 C 
ATOM      5  O   UNL     1     -12.389   1.799  16.813  0.00  0.00    +0.000 OA
ATOM      6  C   UNL     1     -12.242   2.747  15.701  0.00  0.00    +0.000 C 
ATOM      7  N   UNL     1     -11.677   1.810  14.584  0.00  0.00    +0.000 N 
ATOM      8  C   UNL     1     -12.280   0.639  14.284  0.00  0.00    +0.000 A 
ATOM      9  C   UNL     1     -13.131  -0.939  14.756  0.00  0.00    +0.000 A 
ATOM     10  C   UNL     1     -12.687  -1.816  16.264  0.00  0.00    +0.000 A 
ATOM     11  C   UNL     1     -11.363  -1.196  17.277  0.00  0.00    +0.000 A 
ATOM     12  C   UNL     1     -10.476   0.302  16.870  0.00  0.00    +0.000 A 
ATOM     13  C   UNL     1     -10.832   1.292  15.331  0.00  0.00    +0.000 A 
ATOM     14  C   UNL     1      -9.652   2.087  14.081  0.00  0.00    +0.000 A 
ATOM     15  C   UNL     1     -10.036   1.863  12.511  0.00  0.00    +0.000 A 
ATOM     16  C   UNL     1     -10.463   0.531  11.963  0.00  0.00    +0.000 A 
ATOM     17  C   UNL     1     -10.289  -0.571  12.840  0.00  0.00    +0.000 A 
ATOM     18  C   UNL     1     -11.018  -1.779  12.964  0.00  0.00    +0.000 A 
ATOM     19  C   UNL     1     -11.668  -2.763  12.233  0.00  0.00    +0.000 A 
ATOM     20  C   UNL     1     -11.453  -4.042  12.779  0.00  0.00    +0.000 A 
ATOM     21  C   UNL     1     -10.334  -4.187  13.610  0.00  0.00    +0.000 A 
ATOM     22  C   UNL     1     -10.050  -3.170  14.529  0.00  0.00    +0.000 A 
ATOM     23  C   UNL     1     -11.003  -2.132  14.445  0.00  0.00    +0.000 A 
ATOM     24  N   UNL     1     -11.156  -0.771  15.225  0.00  0.00    +0.000 N 
ATOM     25  C   UNL     1     -10.184  -0.353  14.212  0.00  0.00    +0.000 A 
ATOM     26  C   UNL     1     -10.202   0.950  14.460  0.00  0.00    +0.000 A 
ATOM     27  C   UNL     1     -11.286   0.716  10.815  0.00  0.00    +0.000 C 
ATOM     28  O   UNL     1     -12.063  -0.015  10.213  0.00  0.00    +0.000 OA
ATOM     29  N   UNL     1     -11.184   2.082  10.553  0.00  0.00    +0.000 N 
ATOM     30  C   UNL     1     -10.460   2.907  11.540  0.00  0.00    +0.000 C 
ATOM     31  H   UNL     1     -13.581   4.329  15.504  0.00  0.00    +0.000 HD
ATOM     32  H   UNL     1     -14.689   2.696  16.750  0.00  0.00    +0.000 HD
ATOM     33  H   UNL     1     -15.032   0.421  16.324  0.00  0.00    +0.000 HD
ATOM     34  H   UNL     1     -14.686   0.537  14.635  0.00  0.00    +0.000 HD
ATOM     35  H   UNL     1     -12.936  -0.125  17.163  0.00  0.00    +0.000 HD
ATOM     36  H   UNL     1     -13.737  -1.413  13.935  0.00  0.00    +0.000 HD
ATOM     37  H   UNL     1     -13.107  -2.800  16.452  0.00  0.00    +0.000 HD
ATOM     38  H   UNL     1     -11.046  -1.773  18.142  0.00  0.00    +0.000 HD
ATOM     39  H   UNL     1      -9.610   0.615  17.426  0.00  0.00    +0.000 HD
ATOM     40  H   UNL     1     -12.131  -2.619  11.269  0.00  0.00    +0.000 HD
ATOM     41  H   UNL     1     -12.374  -4.465  13.219  0.00  0.00    +0.000 HD
ATOM     42  H   UNL     1      -9.493  -4.770  13.224  0.00  0.00    +0.000 HD
ATOM     43  H   UNL     1      -9.018  -2.965  14.823  0.00  0.00    +0.000 HD
ATOM     44  H   UNL     1     -11.850   2.463   9.893  0.00  0.00    +0.000 HD
ATOM     45  H   UNL     1     -11.162   3.628  11.966  0.00  0.00    +0.000 HD
ATOM     46  H   UNL     1      -9.629   3.393  11.039  0.00  0.00    +0.000 HD
ENDROOT
BRANCH   6  47
ATOM     47  C   UNL     1     -11.355   3.845  16.347  0.00  0.00    +0.000 C 
ATOM     48  H   UNL     1     -10.712   3.400  17.125  0.00  0.00    +0.000 HD
ATOM     49  H   UNL     1     -10.627   4.256  15.631  0.00  0.00    +0.000 HD
ATOM     50  H   UNL     1     -11.922   4.662  16.790  0.00  0.00    +0.000 HD
ENDBRANCH   6  47
BRANCH   2  51
ATOM     51  N   UNL     1     -15.938   3.175  15.182  0.00  0.00    +0.000 N 
ATOM     52  C   UNL     1     -16.668   2.356  14.216  0.00  0.00    +0.000 C 
ATOM     53  O   UNL     1     -16.088   1.636  13.401  0.00  0.00    +0.000 OA
BRANCH  52  54
ATOM     54  C   UNL     1     -18.142   2.112  14.414  0.00  0.00    +0.000 A 
ATOM     55  C   UNL     1     -18.633   1.338  15.465  0.00  0.00    +0.000 A 
ATOM     56  C   UNL     1     -19.838   0.648  15.299  0.00  0.00    +0.000 A 
ATOM     57  C   UNL     1     -20.592   0.817  14.136  0.00  0.00    +0.000 A 
ATOM     58  C   UNL     1     -20.215   1.776  13.199  0.00  0.00    +0.000 A 
ATOM     59  C   UNL     1     -18.996   2.443  13.348  0.00  0.00    +0.000 A 
ATOM     60  H   UNL     1     -18.032   1.173  16.353  0.00  0.00    +0.000 HD
ATOM     61  H   UNL     1     -20.154  -0.076  16.046  0.00  0.00    +0.000 HD
ATOM     62  H   UNL     1     -21.468   0.197  13.959  0.00  0.00    +0.000 HD
ATOM     63  H   UNL     1     -20.831   1.951  12.319  0.00  0.00    +0.000 HD
ATOM     64  H   UNL     1     -18.679   3.148  12.582  0.00  0.00    +0.000 HD
ENDBRANCH  52  54
BRANCH  51  65
ATOM     65  C   UNL     1     -16.718   3.990  16.105  0.00  0.00    +0.000 C 
ATOM     66  H   UNL     1     -16.037   4.438  16.832  0.00  0.00    +0.000 HD
ATOM     67  H   UNL     1     -17.432   3.395  16.665  0.00  0.00    +0.000 HD
ATOM     68  H   UNL     1     -17.242   4.797  15.577  0.00  0.00    +0.000 HD
ENDBRANCH  51  65
ENDBRANCH   2  51
BRANCH   1  69
ATOM     69  O   UNL     1     -13.495   3.620  13.677  0.00  0.00    +0.000 OA
BRANCH  69  70
ATOM     70  C   UNL     1     -13.298   4.943  13.203  0.00  0.00    +0.000 C 
ATOM     71  H   UNL     1     -12.272   5.241  13.311  0.00  0.00    +0.000 HD
ATOM     72  H   UNL     1     -13.851   5.645  13.829  0.00  0.00    +0.000 HD
ATOM     73  H   UNL     1     -13.560   5.107  12.165  0.00  0.00    +0.000 HD
ENDBRANCH  69  70
ENDBRANCH   1  69
TORSDOF 6
ENDMDL
MODEL 8
REMARK VINA RESULT:    -6.331      2.804      6.640
REMARK INTER + INTRA:          -8.295
REMARK INTER:                  -7.854
REMARK INTRA:                  -0.441
REMARK UNBOUND:                -0.299
REMARK  Name = 
REMARK  6 active torsions:
REMARK  status: ('A' for Active; 'I' for Inactive)
REMARK    1  A    between atoms: C_1  and  O_2
REMARK    2  A    between atoms: O_2  and  C_3
REMARK    3  A    between atoms: C_4  and  N_5
REMARK    4  A    between atoms: N_5  and  C_6
REMARK    5  A    between atoms: C_7  and  C_9
REMARK    6  A    between atoms: C_18  and  C_19
REMARK                            x       y       z     vdW  Elec       q    Type
REMARK                         _______ _______ _______ _____ _____    ______ ____
ROOT
ATOM      1  C   UNL     1     -10.042   1.235  12.641  0.00  0.00    +0.000 C 
ATOM      2  C   UNL     1      -8.858   0.457  12.075  0.00  0.00    +0.000 C 
ATOM      3  C   UNL     1      -8.805  -1.060  12.681  0.00  0.00    +0.000 C 
ATOM      4  C   UNL     1     -10.466  -2.020  12.721  0.00  0.00    +0.000 C 
ATOM      5  O   UNL     1     -11.095  -0.914  11.778  0.00  0.00    +0.000 OA
ATOM      6  C   UNL     1     -11.237   0.321  12.559  0.00  0.00    +0.000 C 
ATOM      7  N   UNL     1     -11.373  -0.255  14.006  0.00  0.00    +0.000 N 
ATOM      8  C   UNL     1     -10.489  -1.157  14.484  0.00  0.00    +0.000 A 
ATOM      9  C   UNL     1      -9.419  -2.662  14.311  0.00  0.00    +0.000 A 
ATOM     10  C   UNL     1      -9.933  -4.049  13.286  0.00  0.00    +0.000 A 
ATOM     11  C   UNL     1     -11.522  -4.005  12.487  0.00  0.00    +0.000 A 
ATOM     12  C   UNL     1     -12.620  -2.601  12.633  0.00  0.00    +0.000 A 
ATOM     13  C   UNL     1     -12.209  -1.111  13.674  0.00  0.00    +0.000 A 
ATOM     14  C   UNL     1     -13.284  -0.120  14.879  0.00  0.00    +0.000 A 
ATOM     15  C   UNL     1     -12.581   0.256  16.302  0.00  0.00    +0.000 A 
ATOM     16  C   UNL     1     -11.785  -0.738  17.101  0.00  0.00    +0.000 A 
ATOM     17  C   UNL     1     -11.875  -2.084  16.659  0.00  0.00    +0.000 A 
ATOM     18  C   UNL     1     -10.939  -3.145  16.727  0.00  0.00    +0.000 A 
ATOM     19  C   UNL     1      -9.971  -3.721  17.536  0.00  0.00    +0.000 A 
ATOM     20  C   UNL     1     -10.002  -5.125  17.465  0.00  0.00    +0.000 A 
ATOM     21  C   UNL     1     -11.197  -5.702  17.011  0.00  0.00    +0.000 A 
ATOM     22  C   UNL     1     -11.855  -5.105  15.929  0.00  0.00    +0.000 A 
ATOM     23  C   UNL     1     -11.148  -3.974  15.467  0.00  0.00    +0.000 A 
ATOM     24  N   UNL     1     -11.436  -2.948  14.306  0.00  0.00    +0.000 N 
ATOM     25  C   UNL     1     -12.274  -2.358  15.354  0.00  0.00    +0.000 A 
ATOM     26  C   UNL     1     -12.581  -1.226  14.733  0.00  0.00    +0.000 A 
ATOM     27  C   UNL     1     -10.825  -0.061  17.907  0.00  0.00    +0.000 C 
ATOM     28  O   UNL     1      -9.813  -0.426  18.491  0.00  0.00    +0.000 OA
ATOM     29  N   UNL     1     -11.168   1.284  17.769  0.00  0.00    +0.000 N 
ATOM     30  C   UNL     1     -12.220   1.615  16.787  0.00  0.00    +0.000 C 
ATOM     31  H   UNL     1     -10.256   2.053  11.948  0.00  0.00    +0.000 HD
ATOM     32  H   UNL     1      -9.069   0.273  11.013  0.00  0.00    +0.000 HD
ATOM     33  H   UNL     1      -8.174  -1.651  11.998  0.00  0.00    +0.000 HD
ATOM     34  H   UNL     1      -8.222  -1.023  13.608  0.00  0.00    +0.000 HD
ATOM     35  H   UNL     1     -10.222  -2.743  11.893  0.00  0.00    +0.000 HD
ATOM     36  H   UNL     1      -8.587  -2.739  15.063  0.00  0.00    +0.000 HD
ATOM     37  H   UNL     1      -9.353  -4.968  13.302  0.00  0.00    +0.000 HD
ATOM     38  H   UNL     1     -11.860  -4.879  11.935  0.00  0.00    +0.000 HD
ATOM     39  H   UNL     1     -13.620  -2.622  12.236  0.00  0.00    +0.000 HD
ATOM     40  H   UNL     1      -9.381  -3.194  18.273  0.00  0.00    +0.000 HD
ATOM     41  H   UNL     1      -9.108  -5.535  16.960  0.00  0.00    +0.000 HD
ATOM     42  H   UNL     1     -11.808  -6.235  17.745  0.00  0.00    +0.000 HD
ATOM     43  H   UNL     1     -12.943  -5.162  15.847  0.00  0.00    +0.000 HD
ATOM     44  H   UNL     1     -10.490   1.957  18.103  0.00  0.00    +0.000 HD
ATOM     45  H   UNL     1     -11.780   2.244  16.010  0.00  0.00    +0.000 HD
ATOM     46  H   UNL     1     -13.030   2.117  17.307  0.00  0.00    +0.000 HD
ENDROOT
BRANCH   6  47
ATOM     47  C   UNL     1     -12.442   0.998  11.851  0.00  0.00    +0.000 C 
ATOM     48  H   UNL     1     -12.130   1.385  10.867  0.00  0.00    +0.000 HD
ATOM     49  H   UNL     1     -13.225   0.270  11.593  0.00  0.00    +0.000 HD
ATOM     50  H   UNL     1     -12.884   1.813  12.422  0.00  0.00    +0.000 HD
ENDBRANCH   6  47
BRANCH   2  51
ATOM     51  N   UNL     1      -7.687   1.427  12.016  0.00  0.00    +0.000 N 
ATOM     52  C   UNL     1      -6.602   1.053  12.921  0.00  0.00    +0.000 C 
ATOM     53  O   UNL     1      -6.817   0.528  14.014  0.00  0.00    +0.000 OA
BRANCH  52  54
ATOM     54  C   UNL     1      -5.190   0.989  12.400  0.00  0.00    +0.000 A 
ATOM     55  C   UNL     1      -4.812   0.118  11.378  0.00  0.00    +0.000 A 
ATOM     56  C   UNL     1      -3.497  -0.352  11.335  0.00  0.00    +0.000 A 
ATOM     57  C   UNL     1      -2.547   0.127  12.240  0.00  0.00    +0.000 A 
ATOM     58  C   UNL     1      -2.873   1.174  13.097  0.00  0.00    +0.000 A 
ATOM     59  C   UNL     1      -4.195   1.624  13.164  0.00  0.00    +0.000 A 
ATOM     60  H   UNL     1      -5.555  -0.286  10.699  0.00  0.00    +0.000 HD
ATOM     61  H   UNL     1      -3.228  -1.146  10.641  0.00  0.00    +0.000 HD
ATOM     62  H   UNL     1      -1.556  -0.320  12.279  0.00  0.00    +0.000 HD
ATOM     63  H   UNL     1      -2.120   1.589  13.764  0.00  0.00    +0.000 HD
ATOM     64  H   UNL     1      -4.456   2.402  13.878  0.00  0.00    +0.000 HD
ENDBRANCH  52  54
BRANCH  51  65
ATOM     65  C   UNL     1      -7.327   2.041  10.744  0.00  0.00    +0.000 C 
ATOM     66  H   UNL     1      -7.805   3.021  10.685  0.00  0.00    +0.000 HD
ATOM     67  H   UNL     1      -7.688   1.462   9.900  0.00  0.00    +0.000 HD
ATOM     68  H   UNL     1      -6.242   2.178  10.662  0.00  0.00    +0.000 HD
ENDBRANCH  51  65
ENDBRANCH   2  51
BRANCH   1  69
ATOM     69  O   UNL     1      -9.852   1.996  13.866  0.00  0.00    +0.000 OA
BRANCH  69  70
ATOM     70  C   UNL     1     -10.332   3.325  13.994  0.00  0.00    +0.000 C 
ATOM     71  H   UNL     1     -11.401   3.358  13.902  0.00  0.00    +0.000 HD
ATOM     72  H   UNL     1      -9.969   3.930  13.161  0.00  0.00    +0.000 HD
ATOM     73  H   UNL     1     -10.087   3.819  14.927  0.00  0.00    +0.000 HD
ENDBRANCH  69  70
ENDBRANCH   1  69
TORSDOF 6
ENDMDL
MODEL 9
REMARK VINA RESULT:    -6.238      2.969      6.762
REMARK INTER + INTRA:          -8.178
REMARK INTER:                  -7.579
REMARK INTRA:                  -0.598
REMARK UNBOUND:                -0.299
REMARK  Name = 
REMARK  6 active torsions:
REMARK  status: ('A' for Active; 'I' for Inactive)
REMARK    1  A    between atoms: C_1  and  O_2
REMARK    2  A    between atoms: O_2  and  C_3
REMARK    3  A    between atoms: C_4  and  N_5
REMARK    4  A    between atoms: N_5  and  C_6
REMARK    5  A    between atoms: C_7  and  C_9
REMARK    6  A    between atoms: C_18  and  C_19
REMARK                            x       y       z     vdW  Elec       q    Type
REMARK                         _______ _______ _______ _____ _____    ______ ____
ROOT
ATOM      1  C   UNL     1     -10.094   0.609  10.993  0.00  0.00    +0.000 C 
ATOM      2  C   UNL     1      -8.792  -0.182  10.918  0.00  0.00    +0.000 C 
ATOM      3  C   UNL     1      -8.702  -1.285  12.122  0.00  0.00    +0.000 C 
ATOM      4  C   UNL     1     -10.278  -2.334  12.435  0.00  0.00    +0.000 C 
ATOM      5  O   UNL     1     -10.864  -1.815  11.059  0.00  0.00    +0.000 OA
ATOM      6  C   UNL     1     -11.197  -0.393  11.216  0.00  0.00    +0.000 C 
ATOM      7  N   UNL     1     -11.472  -0.319  12.754  0.00  0.00    +0.000 N 
ATOM      8  C   UNL     1     -10.589  -0.820  13.645  0.00  0.00    +0.000 A 
ATOM      9  C   UNL     1      -9.396  -2.115  14.227  0.00  0.00    +0.000 A 
ATOM     10  C   UNL     1      -9.669  -3.856  13.862  0.00  0.00    +0.000 A 
ATOM     11  C   UNL     1     -11.142  -4.347  12.995  0.00  0.00    +0.000 A 
ATOM     12  C   UNL     1     -12.353  -3.159  12.430  0.00  0.00    +0.000 A 
ATOM     13  C   UNL     1     -12.191  -1.330  12.756  0.00  0.00    +0.000 A 
ATOM     14  C   UNL     1     -13.482  -0.064  13.322  0.00  0.00    +0.000 A 
ATOM     15  C   UNL     1     -12.996   0.958  14.496  0.00  0.00    +0.000 A 
ATOM     16  C   UNL     1     -12.235   0.498  15.708  0.00  0.00    +0.000 A 
ATOM     17  C   UNL     1     -12.167  -0.908  15.885  0.00  0.00    +0.000 A 
ATOM     18  C   UNL     1     -11.169  -1.719  16.480  0.00  0.00    +0.000 A 
ATOM     19  C   UNL     1     -10.270  -1.777  17.536  0.00  0.00    +0.000 A 
ATOM     20  C   UNL     1     -10.186  -3.074  18.075  0.00  0.00    +0.000 A 
ATOM     21  C   UNL     1     -11.267  -3.929  17.818  0.00  0.00    +0.000 A 
ATOM     22  C   UNL     1     -11.826  -3.929  16.534  0.00  0.00    +0.000 A 
ATOM     23  C   UNL     1     -11.154  -3.020  15.690  0.00  0.00    +0.000 A 
ATOM     24  N   UNL     1     -11.368  -2.622  14.180  0.00  0.00    +0.000 N 
ATOM     25  C   UNL     1     -12.374  -1.753  14.797  0.00  0.00    +0.000 A 
ATOM     26  C   UNL     1     -12.685  -1.034  13.726  0.00  0.00    +0.000 A 
ATOM     27  C   UNL     1     -11.439   1.564  16.219  0.00  0.00    +0.000 C 
ATOM     28  O   UNL     1     -10.484   1.605  16.985  0.00  0.00    +0.000 OA
ATOM     29  N   UNL     1     -11.862   2.672  15.486  0.00  0.00    +0.000 N 
ATOM     30  C   UNL     1     -12.803   2.428  14.375  0.00  0.00    +0.000 C 
ATOM     31  H   UNL     1     -10.279   1.026  10.000  0.00  0.00    +0.000 HD
ATOM     32  H   UNL     1      -8.853  -0.821  10.026  0.00  0.00    +0.000 HD
ATOM     33  H   UNL     1      -7.947  -2.026  11.815  0.00  0.00    +0.000 HD
ATOM     34  H   UNL     1      -8.247  -0.791  12.986  0.00  0.00    +0.000 HD
ATOM     35  H   UNL     1      -9.876  -3.304  12.024  0.00  0.00    +0.000 HD
ATOM     36  H   UNL     1      -8.662  -1.765  15.004  0.00  0.00    +0.000 HD
ATOM     37  H   UNL     1      -9.028  -4.604  14.321  0.00  0.00    +0.000 HD
ATOM     38  H   UNL     1     -11.341  -5.406  12.849  0.00  0.00    +0.000 HD
ATOM     39  H   UNL     1     -13.290  -3.467  12.000  0.00  0.00    +0.000 HD
ATOM     40  H   UNL     1      -9.821  -0.922  18.018  0.00  0.00    +0.000 HD
ATOM     41  H   UNL     1      -9.207  -3.545  17.872  0.00  0.00    +0.000 HD
ATOM     42  H   UNL     1     -11.925  -4.175  18.657  0.00  0.00    +0.000 HD
ATOM     43  H   UNL     1     -12.887  -4.148  16.395  0.00  0.00    +0.000 HD
ATOM     44  H   UNL     1     -11.285   3.501  15.552  0.00  0.00    +0.000 HD
ATOM     45  H   UNL     1     -12.316   2.720  13.441  0.00  0.00    +0.000 HD
ATOM     46  H   UNL     1     -13.708   2.998  14.558  0.00  0.00    +0.000 HD
ENDROOT
BRANCH   6  47
ATOM     47  C   UNL     1     -12.349  -0.230  10.189  0.00  0.00    +0.000 C 
ATOM     48  H   UNL     1     -12.081   0.534   9.441  0.00  0.00    +0.000 HD
ATOM     49  H   UNL     1     -12.483  -1.136   9.578  0.00  0.00    +0.000 HD
ATOM     50  H   UNL     1     -13.302   0.043  10.639  0.00  0.00    +0.000 HD
ENDBRANCH   6  47
BRANCH   2  51
ATOM     51  N   UNL     1      -7.700   0.808  10.543  0.00  0.00    +0.000 N 
ATOM     52  C   UNL     1      -6.695   0.959  11.593  0.00  0.00    +0.000 C 
ATOM     53  O   UNL     1      -6.988   0.901  12.789  0.00  0.00    +0.000 OA
BRANCH  52  54
ATOM     54  C   UNL     1      -5.234   0.853  11.242  0.00  0.00    +0.000 A 
ATOM     55  C   UNL     1      -4.623  -0.368  10.959  0.00  0.00    +0.000 A 
ATOM     56  C   UNL     1      -3.263  -0.530  11.232  0.00  0.00    +0.000 A 
ATOM     57  C   UNL     1      -2.501   0.549  11.684  0.00  0.00    +0.000 A 
ATOM     58  C   UNL     1      -3.064   1.822  11.732  0.00  0.00    +0.000 A 
ATOM     59  C   UNL     1      -4.431   1.981  11.489  0.00  0.00    +0.000 A 
ATOM     60  H   UNL     1      -5.219  -1.220  10.646  0.00  0.00    +0.000 HD
ATOM     61  H   UNL     1      -2.810  -1.516  11.161  0.00  0.00    +0.000 HD
ATOM     62  H   UNL     1      -1.472   0.397  12.003  0.00  0.00    +0.000 HD
ATOM     63  H   UNL     1      -2.458   2.676  12.029  0.00  0.00    +0.000 HD
ATOM     64  H   UNL     1      -4.877   2.969  11.586  0.00  0.00    +0.000 HD
ENDBRANCH  52  54
BRANCH  51  65
ATOM     65  C   UNL     1      -7.252   0.892   9.159  0.00  0.00    +0.000 C 
ATOM     66  H   UNL     1      -7.305  -0.105   8.716  0.00  0.00    +0.000 HD
ATOM     67  H   UNL     1      -6.218   1.215   9.088  0.00  0.00    +0.000 HD
ATOM     68  H   UNL     1      -7.890   1.566   8.575  0.00  0.00    +0.000 HD
ENDBRANCH  51  65
ENDBRANCH   2  51
BRANCH   1  69
ATOM     69  O   UNL     1     -10.119   1.832  11.781  0.00  0.00    +0.000 OA
BRANCH  69  70
ATOM     70  C   UNL     1     -10.707   3.023  11.281  0.00  0.00    +0.000 C 
ATOM     71  H   UNL     1     -10.139   3.417  10.460  0.00  0.00    +0.000 HD
ATOM     72  H   UNL     1     -10.664   3.804  12.041  0.00  0.00    +0.000 HD
ATOM     73  H   UNL     1     -11.728   2.923  10.929  0.00  0.00    +0.000 HD
ENDBRANCH  69  70
ENDBRANCH   1  69
TORSDOF 6
ENDMDL
