REMARK  Name = 
REMARK  6 active torsions:
REMARK  status: ('A' for Active; 'I' for Inactive)
REMARK    1  A    between atoms: C_1  and  N_2
REMARK    2  A    between atoms: N_19  and  C_20
REMARK    3  A    between atoms: C_20  and  C_21
REMARK    4  A    between atoms: C_21  and  O_22
REMARK    5  A    between atoms: C_21  and  C_23
REMARK    6  A    between atoms: C_23  and  O_24
REMARK                            x       y       z     vdW  Elec       q    Type
REMARK                         _______ _______ _______ _____ _____    ______ ____
ROOT
ATOM      1  N   UNL     1      -0.426   2.331  -0.036  0.00  0.00    +0.000 N 
ATOM      2  C   UNL     1       0.383   3.476  -0.091  0.00  0.00    +0.000 A 
ATOM      3  C   UNL     1       0.021   4.840  -0.065  0.00  0.00    +0.000 A 
ATOM      4  C   UNL     1       1.026   5.801  -0.154  0.00  0.00    +0.000 A 
ATOM      5  C   UNL     1       2.357   5.425  -0.254  0.00  0.00    +0.000 A 
ATOM      6  C   UNL     1       2.715   4.072  -0.298  0.00  0.00    +0.000 A 
ATOM      7  C   UNL     1       1.724   3.074  -0.223  0.00  0.00    +0.000 A 
ATOM      8  C   UNL     1       1.634   1.688  -0.292  0.00  0.00    +0.000 A 
ATOM      9  C   UNL     1       2.719   0.792  -0.488  0.00  0.00    +0.000 A 
ATOM     10  C   UNL     1       2.417  -0.569  -0.761  0.00  0.00    +0.000 A 
ATOM     11  C   UNL     1       1.072  -0.997  -0.679  0.00  0.00    +0.000 A 
ATOM     12  C   UNL     1       0.602  -2.284  -0.859  0.00  0.00    +0.000 A 
ATOM     13  C   UNL     1       0.760  -3.401  -1.690  0.00  0.00    +0.000 A 
ATOM     14  C   UNL     1       0.165  -4.603  -1.295  0.00  0.00    +0.000 A 
ATOM     15  C   UNL     1      -0.360  -4.727  -0.012  0.00  0.00    +0.000 A 
ATOM     16  C   UNL     1      -0.593  -3.596   0.771  0.00  0.00    +0.000 A 
ATOM     17  C   UNL     1      -0.340  -2.358   0.174  0.00  0.00    +0.000 A 
ATOM     18  N   UNL     1      -0.841  -1.059   0.306  0.00  0.00    +0.000 N 
ATOM     19  C   UNL     1       0.151  -0.174  -0.108  0.00  0.00    +0.000 A 
ATOM     20  C   UNL     1       0.365   1.201  -0.117  0.00  0.00    +0.000 A 
ATOM     21  C   UNL     1       3.641  -1.303  -0.865  0.00  0.00    +0.000 C 
ATOM     22  O   UNL     1       3.910  -2.488  -0.961  0.00  0.00    +0.000 OA
ATOM     23  N   UNL     1       4.597  -0.327  -0.725  0.00  0.00    +0.000 N 
ATOM     24  C   UNL     1       4.146   0.930  -0.432  0.00  0.00    +0.000 C 
ATOM     25  O   UNL     1       4.917   1.838  -0.127  0.00  0.00    +0.000 OA
ATOM     26  H   UNL     1      -1.013   5.160   0.011  0.00  0.00    +0.000 HD
ATOM     27  H   UNL     1       0.762   6.856  -0.145  0.00  0.00    +0.000 HD
ATOM     28  H   UNL     1       3.133   6.183  -0.310  0.00  0.00    +0.000 HD
ATOM     29  H   UNL     1       3.763   3.822  -0.393  0.00  0.00    +0.000 HD
ATOM     30  H   UNL     1       1.244  -3.312  -2.657  0.00  0.00    +0.000 HD
ATOM     31  H   UNL     1       0.173  -5.460  -1.962  0.00  0.00    +0.000 HD
ATOM     32  H   UNL     1      -0.626  -5.709   0.372  0.00  0.00    +0.000 HD
ATOM     33  H   UNL     1      -0.953  -3.701   1.785  0.00  0.00    +0.000 HD
ATOM     34  H   UNL     1       5.570  -0.562  -0.614  0.00  0.00    +0.000 HD
ENDROOT
BRANCH   1  35
ATOM     35  C   UNL     1      -1.869   2.403  -0.114  0.00  0.00    +0.000 C 
ATOM     36  H   UNL     1      -2.197   3.416  -0.351  0.00  0.00    +0.000 HD
ATOM     37  H   UNL     1      -2.292   2.142   0.859  0.00  0.00    +0.000 HD
ATOM     38  H   UNL     1      -2.206   1.762  -0.931  0.00  0.00    +0.000 HD
ENDBRANCH   1  35
BRANCH  18  39
ATOM     39  C   UNL     1      -2.233  -0.674   0.370  0.00  0.00    +0.000 C 
ATOM     40  H   UNL     1      -2.436  -0.307  -0.644  0.00  0.00    +0.000 HD
ATOM     41  H   UNL     1      -2.265   0.143   1.088  0.00  0.00    +0.000 HD
BRANCH  39  42
ATOM     42  C   UNL     1      -3.401  -1.598   0.717  0.00  0.00    +0.000 C 
ATOM     43  H   UNL     1      -4.296  -0.966   0.645  0.00  0.00    +0.000 HD
BRANCH  42  44
ATOM     44  C   UNL     1      -3.366  -2.136   2.146  0.00  0.00    +0.000 C 
ATOM     45  H   UNL     1      -3.154  -1.334   2.859  0.00  0.00    +0.000 HD
ATOM     46  H   UNL     1      -2.619  -2.908   2.273  0.00  0.00    +0.000 HD
BRANCH  44  47
ATOM     47  O   UNL     1      -4.601  -2.745   2.511  0.00  0.00    +0.000 OA
ATOM     48  H   UNL     1      -5.324  -2.167   2.216  0.00  0.00    +0.000 HD
ENDBRANCH  44  47
ENDBRANCH  42  44
BRANCH  42  49
ATOM     49  O   UNL     1      -3.621  -2.601  -0.269  0.00  0.00    +0.000 OA
ATOM     50  H   UNL     1      -2.939  -3.290  -0.179  0.00  0.00    +0.000 HD
ENDBRANCH  42  49
ENDBRANCH  39  42
ENDBRANCH  18  39
TORSDOF 6
