REMARK  Name = 
REMARK  8 active torsions:
REMARK  status: ('A' for Active; 'I' for Inactive)
REMARK    1  A    between atoms: C_1  and  O_2
REMARK    2  A    between atoms: O_2  and  C_3
REMARK    3  A    between atoms: C_4  and  N_5
REMARK    4  A    between atoms: N_5  and  C_6
REMARK    5  A    between atoms: N_5  and  C_7
REMARK    6  A    between atoms: C_7  and  C_8
REMARK    7  A    between atoms: C_8  and  C_9
REMARK    8  A    between atoms: C_14  and  C_15
REMARK                            x       y       z     vdW  Elec       q    Type
REMARK                         _______ _______ _______ _____ _____    ______ ____
ROOT
ATOM      1  C   UNL     1       1.755   0.172   0.385  0.00  0.00    +0.000 C 
ATOM      2  C   UNL     1       1.979   1.707   0.217  0.00  0.00    +0.000 C 
ATOM      3  C   UNL     1       0.621   2.330  -0.144  0.00  0.00    +0.000 C 
ATOM      4  C   UNL     1      -0.380   2.072   1.009  0.00  0.00    +0.000 C 
ATOM      5  O   UNL     1       0.164   1.271   2.057  0.00  0.00    +0.000 OA
ATOM      6  C   UNL     1       0.797   0.020   1.657  0.00  0.00    +0.000 C 
ATOM      7  N   UNL     1      -0.252  -0.977   1.450  0.00  0.00    +0.000 N 
ATOM      8  C   UNL     1      -0.233  -2.384   1.570  0.00  0.00    +0.000 A 
ATOM      9  C   UNL     1       0.795  -3.273   1.912  0.00  0.00    +0.000 A 
ATOM     10  C   UNL     1       0.464  -4.601   2.194  0.00  0.00    +0.000 A 
ATOM     11  C   UNL     1      -0.855  -5.036   2.161  0.00  0.00    +0.000 A 
ATOM     12  C   UNL     1      -1.840  -4.234   1.589  0.00  0.00    +0.000 A 
ATOM     13  C   UNL     1      -1.501  -2.942   1.150  0.00  0.00    +0.000 A 
ATOM     14  C   UNL     1      -2.087  -1.983   0.309  0.00  0.00    +0.000 A 
ATOM     15  C   UNL     1      -2.777  -2.228  -0.899  0.00  0.00    +0.000 A 
ATOM     16  C   UNL     1      -2.980  -1.078  -1.699  0.00  0.00    +0.000 A 
ATOM     17  C   UNL     1      -2.535   0.127  -1.115  0.00  0.00    +0.000 A 
ATOM     18  C   UNL     1      -3.403   1.243  -0.864  0.00  0.00    +0.000 A 
ATOM     19  C   UNL     1      -4.652   1.658  -1.365  0.00  0.00    +0.000 A 
ATOM     20  C   UNL     1      -5.388   2.636  -0.683  0.00  0.00    +0.000 A 
ATOM     21  C   UNL     1      -4.901   3.222   0.482  0.00  0.00    +0.000 A 
ATOM     22  C   UNL     1      -3.619   2.935   0.954  0.00  0.00    +0.000 A 
ATOM     23  C   UNL     1      -2.857   1.977   0.271  0.00  0.00    +0.000 A 
ATOM     24  N   UNL     1      -1.612   1.458   0.604  0.00  0.00    +0.000 N 
ATOM     25  C   UNL     1      -1.688   0.282  -0.031  0.00  0.00    +0.000 A 
ATOM     26  C   UNL     1      -1.344  -0.861   0.650  0.00  0.00    +0.000 A 
ATOM     27  C   UNL     1      -3.188  -1.459  -3.062  0.00  0.00    +0.000 C 
ATOM     28  O   UNL     1      -3.244  -0.846  -4.108  0.00  0.00    +0.000 OA
ATOM     29  N   UNL     1      -3.243  -2.857  -2.983  0.00  0.00    +0.000 N 
ATOM     30  C   UNL     1      -2.917  -3.452  -1.688  0.00  0.00    +0.000 C 
ATOM     31  H   UNL     1       2.688  -0.379   0.555  0.00  0.00    +0.000 HD
ATOM     32  H   UNL     1       2.204   2.097   1.216  0.00  0.00    +0.000 HD
ATOM     33  H   UNL     1       0.247   1.944  -1.104  0.00  0.00    +0.000 HD
ATOM     34  H   UNL     1       0.715   3.411  -0.300  0.00  0.00    +0.000 HD
ATOM     35  H   UNL     1      -0.644   3.037   1.455  0.00  0.00    +0.000 HD
ATOM     36  H   UNL     1       1.831  -2.960   1.949  0.00  0.00    +0.000 HD
ATOM     37  H   UNL     1       1.252  -5.295   2.477  0.00  0.00    +0.000 HD
ATOM     38  H   UNL     1      -1.110  -6.026   2.529  0.00  0.00    +0.000 HD
ATOM     39  H   UNL     1      -2.864  -4.590   1.511  0.00  0.00    +0.000 HD
ATOM     40  H   UNL     1      -5.075   1.175  -2.243  0.00  0.00    +0.000 HD
ATOM     41  H   UNL     1      -6.376   2.906  -1.044  0.00  0.00    +0.000 HD
ATOM     42  H   UNL     1      -5.533   3.904   1.047  0.00  0.00    +0.000 HD
ATOM     43  H   UNL     1      -3.269   3.362   1.890  0.00  0.00    +0.000 HD
ATOM     44  H   UNL     1      -3.468  -3.386  -3.811  0.00  0.00    +0.000 HD
ATOM     45  H   UNL     1      -3.729  -4.101  -1.368  0.00  0.00    +0.000 HD
ATOM     46  H   UNL     1      -1.963  -3.985  -1.769  0.00  0.00    +0.000 HD
ENDROOT
BRANCH   6  47
ATOM     47  C   UNL     1       1.624  -0.280   2.924  0.00  0.00    +0.000 C 
ATOM     48  H   UNL     1       2.330  -1.101   2.796  0.00  0.00    +0.000 HD
ATOM     49  H   UNL     1       0.965  -0.522   3.770  0.00  0.00    +0.000 HD
ATOM     50  H   UNL     1       2.200   0.601   3.232  0.00  0.00    +0.000 HD
ENDBRANCH   6  47
BRANCH   1  51
ATOM     51  O   UNL     1       1.064  -0.368  -0.758  0.00  0.00    +0.000 OA
BRANCH  51  52
ATOM     52  C   UNL     1       1.769  -1.031  -1.780  0.00  0.00    +0.000 C 
ATOM     53  H   UNL     1       1.703  -0.420  -2.684  0.00  0.00    +0.000 HD
ATOM     54  H   UNL     1       2.808  -1.249  -1.531  0.00  0.00    +0.000 HD
ATOM     55  H   UNL     1       1.257  -1.969  -2.018  0.00  0.00    +0.000 HD
ENDBRANCH  51  52
ENDBRANCH   1  51
BRANCH   2  56
ATOM     56  N   UNL     1       3.084   2.248  -0.616  0.00  0.00    +0.000 NA
BRANCH  56  57
ATOM     57  C   UNL     1       3.259   1.683  -1.939  0.00  0.00    +0.000 C 
ATOM     58  H   UNL     1       2.315   1.635  -2.482  0.00  0.00    +0.000 HD
ATOM     59  H   UNL     1       3.903   2.326  -2.552  0.00  0.00    +0.000 HD
ATOM     60  H   UNL     1       3.734   0.701  -1.906  0.00  0.00    +0.000 HD
ENDBRANCH  56  57
BRANCH  56  61
ATOM     61  C   UNL     1       4.326   2.321   0.183  0.00  0.00    +0.000 C 
ATOM     62  H   UNL     1       4.142   2.987   1.016  0.00  0.00    +0.000 HD
ATOM     63  H   UNL     1       4.559   1.333   0.608  0.00  0.00    +0.000 HD
BRANCH  61  64
ATOM     64  C   UNL     1       5.575   2.849  -0.534  0.00  0.00    +0.000 C 
ATOM     65  H   UNL     1       5.922   2.119  -1.292  0.00  0.00    +0.000 HD
ATOM     66  H   UNL     1       5.346   3.773  -1.065  0.00  0.00    +0.000 HD
BRANCH  64  67
ATOM     67  C   UNL     1       6.653   3.088   0.436  0.00  0.00    +0.000 C 
ATOM     68  N   UNL     1       7.474   3.262   1.223  0.00  0.00    +0.000 NA
ENDBRANCH  64  67
ENDBRANCH  61  64
ENDBRANCH  56  61
ENDBRANCH   2  56
TORSDOF 8
