
 OpenBabel01112423093D

 55 55  0  0  0  0  0  0  0  0999 V2000
    1.9478    6.7500   -4.8506 C   0  0  0  0  0  0  0  0  0  0  0  0
    1.2960    6.7618   -3.4564 C   0  0  0  0  0  0  0  0  0  0  0  0
    0.8336    8.1743   -3.0831 C   0  0  0  0  0  0  0  0  0  0  0  0
    0.0756    5.8278   -3.5051 C   0  0  0  0  0  0  0  0  0  0  0  0
    2.2248    6.2183   -2.4146 N   0  0  0  0  0  0  0  0  0  0  0  0
    3.5551    6.3926   -2.3434 C   0  0  0  0  0  0  0  0  0  0  0  0
    4.1377    7.4794   -2.8822 N   0  0  0  0  0  0  0  0  0  0  0  0
    4.3065    5.4460   -1.7175 N   0  3  0  0  0  0  0  0  0  0  0  0
    5.7532    5.6036   -1.6474 C   0  0  0  0  0  0  0  0  0  0  0  0
    6.5370    4.4847   -0.9445 C   0  0  0  0  0  0  0  0  0  0  0  0
    8.0177    4.8128   -0.9098 C   0  0  0  0  0  0  0  0  0  0  0  0
    8.4281    6.1411   -0.8360 C   0  0  0  0  0  0  0  0  0  0  0  0
    9.7675    6.4857   -0.8538 C   0  0  0  0  0  0  0  0  0  0  0  0
   10.7776    5.5334   -0.8866 C   0  0  0  0  0  0  0  0  0  0  0  0
   12.1463    5.9104   -0.8997 N   0  0  0  0  0  0  0  0  0  0  0  0
   12.5775    7.2236   -0.8526 C   0  0  0  0  0  0  0  0  0  0  0  0
   11.8559    8.2056   -0.7594 O   0  0  0  0  0  0  0  0  0  0  0  0
   13.9327    7.3288   -0.9498 O   0  0  0  0  0  0  0  0  0  0  0  0
   14.4528    8.6928   -1.0176 C   0  0  0  0  0  0  0  0  0  0  0  0
   14.1321    9.4959    0.2598 C   0  0  0  0  0  0  0  0  0  0  0  0
   15.9792    8.5771   -1.1148 C   0  0  0  0  0  0  0  0  0  0  0  0
   13.9605    9.4033   -2.2941 C   0  0  0  0  0  0  0  0  0  0  0  0
   10.3914    4.1890   -0.9139 C   0  0  0  0  0  0  0  0  0  0  0  0
    9.0201    3.8317   -0.9256 C   0  0  0  0  0  0  0  0  0  0  0  0
    1.2248    7.0155   -5.6286 H   0  0  0  0  0  0  0  0  0  0  0  0
    2.3455    5.7544   -5.0797 H   0  0  0  0  0  0  0  0  0  0  0  0
    2.7766    7.4559   -4.9412 H   0  0  0  0  0  0  0  0  0  0  0  0
    0.1127    8.5589   -3.8132 H   0  0  0  0  0  0  0  0  0  0  0  0
    1.6654    8.8828   -3.0404 H   0  0  0  0  0  0  0  0  0  0  0  0
    0.3562    8.1824   -2.0972 H   0  0  0  0  0  0  0  0  0  0  0  0
   -0.6536    6.1553   -4.2529 H   0  0  0  0  0  0  0  0  0  0  0  0
   -0.4246    5.7842   -2.5314 H   0  0  0  0  0  0  0  0  0  0  0  0
    0.3859    4.8060   -3.7540 H   0  0  0  0  0  0  0  0  0  0  0  0
    1.8271    5.5643   -1.7510 H   0  0  0  0  0  0  0  0  0  0  0  0
    3.5874    8.2481   -3.2354 H   0  0  0  0  0  0  0  0  0  0  0  0
    5.1387    7.6151   -2.8969 H   0  0  0  0  0  0  0  0  0  0  0  0
    3.8542    4.6279   -1.3294 H   0  0  0  0  0  0  0  0  0  0  0  0
    5.8893    6.5437   -1.1083 H   0  0  0  0  0  0  0  0  0  0  0  0
    6.1319    5.7016   -2.6726 H   0  0  0  0  0  0  0  0  0  0  0  0
    6.3695    3.5416   -1.4773 H   0  0  0  0  0  0  0  0  0  0  0  0
    6.1727    4.3580    0.0809 H   0  0  0  0  0  0  0  0  0  0  0  0
    7.7469    6.9812   -0.7762 H   0  0  0  0  0  0  0  0  0  0  0  0
    9.9443    7.5521   -0.8411 H   0  0  0  0  0  0  0  0  0  0  0  0
   12.8633    5.1999   -0.9501 H   0  0  0  0  0  0  0  0  0  0  0  0
   14.5021    8.9705    1.1474 H   0  0  0  0  0  0  0  0  0  0  0  0
   13.0626    9.6490    0.4263 H   0  0  0  0  0  0  0  0  0  0  0  0
   14.5839   10.4922    0.2259 H   0  0  0  0  0  0  0  0  0  0  0  0
   16.3922    8.0682   -0.2376 H   0  0  0  0  0  0  0  0  0  0  0  0
   16.4429    9.5679   -1.1878 H   0  0  0  0  0  0  0  0  0  0  0  0
   16.2750    7.9928   -1.9922 H   0  0  0  0  0  0  0  0  0  0  0  0
   12.8763    9.5453   -2.3188 H   0  0  0  0  0  0  0  0  0  0  0  0
   14.2069    8.8093   -3.1820 H   0  0  0  0  0  0  0  0  0  0  0  0
   14.4122   10.3945   -2.3987 H   0  0  0  0  0  0  0  0  0  0  0  0
   11.1370    3.3971   -0.9272 H   0  0  0  0  0  0  0  0  0  0  0  0
    8.7540    2.7759   -0.9504 H   0  0  0  0  0  0  0  0  0  0  0  0
  1  2  1  0  0  0  0
  1 25  1  0  0  0  0
  1 26  1  0  0  0  0
  1 27  1  0  0  0  0
  2  3  1  0  0  0  0
  2  4  1  0  0  0  0
  2  5  1  0  0  0  0
  3 28  1  0  0  0  0
  3 29  1  0  0  0  0
  3 30  1  0  0  0  0
  4 31  1  0  0  0  0
  4 32  1  0  0  0  0
  4 33  1  0  0  0  0
  5  6  1  0  0  0  0
  5 34  1  0  0  0  0
  6  7  1  0  0  0  0
  6  8  2  0  0  0  0
  7 35  1  0  0  0  0
  7 36  1  0  0  0  0
  8  9  1  0  0  0  0
  8 37  1  0  0  0  0
  9 10  1  0  0  0  0
  9 38  1  0  0  0  0
  9 39  1  0  0  0  0
 10 11  1  0  0  0  0
 10 40  1  0  0  0  0
 10 41  1  0  0  0  0
 11 12  1  0  0  0  0
 11 24  2  0  0  0  0
 12 13  2  0  0  0  0
 12 42  1  0  0  0  0
 13 14  1  0  0  0  0
 13 43  1  0  0  0  0
 14 15  1  0  0  0  0
 14 23  2  0  0  0  0
 15 16  1  0  0  0  0
 15 44  1  0  0  0  0
 16 17  2  0  0  0  0
 16 18  1  0  0  0  0
 18 19  1  0  0  0  0
 19 20  1  0  0  0  0
 19 21  1  0  0  0  0
 19 22  1  0  0  0  0
 20 45  1  0  0  0  0
 20 46  1  0  0  0  0
 20 47  1  0  0  0  0
 21 48  1  0  0  0  0
 21 49  1  0  0  0  0
 21 50  1  0  0  0  0
 22 51  1  0  0  0  0
 22 52  1  0  0  0  0
 22 53  1  0  0  0  0
 23 24  1  0  0  0  0
 23 54  1  0  0  0  0
 24 55  1  0  0  0  0
M  CHG  1   8   1
M  END
$$$$
