
 OpenBabel01112423093D

 43 45  0  0  0  0  0  0  0  0999 V2000
    1.6476   -0.1018    3.4019 O   0  0  0  0  0  0  0  0  0  0  0  0
    0.6300    0.0891    2.5088 C   0  0  0  0  0  0  0  0  0  0  0  0
   -0.2991   -0.9249    2.2894 C   0  0  0  0  0  0  0  0  0  0  0  0
   -1.2804   -0.7538    1.3168 C   0  0  0  0  0  0  0  0  0  0  0  0
   -1.3468    0.4407    0.5939 C   0  0  0  0  0  0  0  0  0  0  0  0
   -0.5018    1.5141    0.9107 C   0  0  0  0  0  0  0  0  0  0  0  0
   -0.7477    2.8769    0.3683 C   0  0  0  0  0  0  0  0  0  0  0  0
   -1.8611    3.5198    0.1346 N   0  0  0  0  0  0  0  0  0  0  0  0
   -3.1413    3.0027    0.3536 C   0  0  0  0  0  0  0  0  0  0  0  0
   -3.4990    2.2813    1.4966 C   0  0  0  0  0  0  0  0  0  0  0  0
   -4.6907    1.5530    1.5318 C   0  0  0  0  0  0  0  0  0  0  0  0
   -5.5952    1.6527    0.4710 C   0  0  0  0  0  0  0  0  0  0  0  0
   -6.7545    0.8717    0.3772 N   0  3  0  0  0  0  0  0  0  0  0  0
   -7.0489   -0.1379    1.1152 C   0  0  0  0  0  0  0  0  0  0  0  0
   -8.2860   -0.9141    0.9203 C   0  0  0  0  0  0  0  0  0  0  0  0
   -8.5442   -1.9938    1.7699 C   0  0  0  0  0  0  0  0  0  0  0  0
   -9.7235   -2.7341    1.6195 C   0  0  0  0  0  0  0  0  0  0  0  0
  -10.6472   -2.4056    0.6217 C   0  0  0  0  0  0  0  0  0  0  0  0
  -10.3790   -1.3389   -0.2251 C   0  0  0  0  0  0  0  0  0  0  0  0
  -11.2295   -0.9589   -1.2224 O   0  0  0  0  0  0  0  0  0  0  0  0
   -9.2092   -0.6002   -0.0809 C   0  0  0  0  0  0  0  0  0  0  0  0
   -8.9858    0.4467   -0.9495 O   0  0  0  0  0  0  0  0  0  0  0  0
   -5.3366    2.5436   -0.5736 C   0  0  0  0  0  0  0  0  0  0  0  0
   -4.1023    3.2007   -0.6335 C   0  0  0  0  0  0  0  0  0  0  0  0
    0.5349    1.3113    1.8316 C   0  0  0  0  0  0  0  0  0  0  0  0
    1.4472    2.2792    2.1550 O   0  0  0  0  0  0  0  0  0  0  0  0
    1.7045   -1.0419    3.6358 H   0  0  0  0  0  0  0  0  0  0  0  0
   -0.2651   -1.8475    2.8621 H   0  0  0  0  0  0  0  0  0  0  0  0
   -2.0029   -1.5452    1.1328 H   0  0  0  0  0  0  0  0  0  0  0  0
   -2.1051    0.5475   -0.1757 H   0  0  0  0  0  0  0  0  0  0  0  0
    0.1619    3.4599    0.1498 H   0  0  0  0  0  0  0  0  0  0  0  0
   -2.8007    2.1973    2.3275 H   0  0  0  0  0  0  0  0  0  0  0  0
   -4.8446    0.9084    2.3909 H   0  0  0  0  0  0  0  0  0  0  0  0
   -7.3980    1.0999   -0.3949 H   0  0  0  0  0  0  0  0  0  0  0  0
   -6.3661   -0.4602    1.9159 H   0  0  0  0  0  0  0  0  0  0  0  0
   -7.8484   -2.2757    2.5581 H   0  0  0  0  0  0  0  0  0  0  0  0
   -9.9276   -3.5711    2.2868 H   0  0  0  0  0  0  0  0  0  0  0  0
  -11.5587   -2.9894    0.5267 H   0  0  0  0  0  0  0  0  0  0  0  0
  -12.0098   -1.5454   -1.2112 H   0  0  0  0  0  0  0  0  0  0  0  0
   -9.7818    0.4375   -1.5304 H   0  0  0  0  0  0  0  0  0  0  0  0
   -6.0425    2.7151   -1.3859 H   0  0  0  0  0  0  0  0  0  0  0  0
   -3.8710    3.8523   -1.4747 H   0  0  0  0  0  0  0  0  0  0  0  0
    1.6707    2.8140    1.3789 H   0  0  0  0  0  0  0  0  0  0  0  0
  1  2  1  0  0  0  0
  1 27  1  0  0  0  0
  2  3  1  0  0  0  0
  2 25  2  0  0  0  0
  3  4  2  0  0  0  0
  3 28  1  0  0  0  0
  4  5  1  0  0  0  0
  4 29  1  0  0  0  0
  5  6  2  0  0  0  0
  5 30  1  0  0  0  0
  6  7  1  0  0  0  0
  6 25  1  0  0  0  0
  7  8  2  0  0  0  0
  7 31  1  0  0  0  0
  8  9  1  0  0  0  0
  9 10  1  0  0  0  0
  9 24  2  0  0  0  0
 10 11  2  0  0  0  0
 10 32  1  0  0  0  0
 11 12  1  0  0  0  0
 11 33  1  0  0  0  0
 12 13  1  0  0  0  0
 12 23  2  0  0  0  0
 13 14  2  0  0  0  0
 13 34  1  0  0  0  0
 14 15  1  0  0  0  0
 14 35  1  0  0  0  0
 15 16  1  0  0  0  0
 15 21  2  0  0  0  0
 16 17  2  0  0  0  0
 16 36  1  0  0  0  0
 17 18  1  0  0  0  0
 17 37  1  0  0  0  0
 18 19  2  0  0  0  0
 18 38  1  0  0  0  0
 19 20  1  0  0  0  0
 19 21  1  0  0  0  0
 20 39  1  0  0  0  0
 21 22  1  0  0  0  0
 22 40  1  0  0  0  0
 23 24  1  0  0  0  0
 23 41  1  0  0  0  0
 24 42  1  0  0  0  0
 25 26  1  0  0  0  0
 26 43  1  0  0  0  0
M  CHG  1  13   1
M  END
$$$$
