MODEL 1
REMARK VINA RESULT:   -11.978      0.000      0.000
REMARK INTER + INTRA:         -15.812
REMARK INTER:                 -15.128
REMARK INTRA:                  -0.684
REMARK UNBOUND:                -0.684
REMARK  Name = 
REMARK  5 active torsions:
REMARK  status: ('A' for Active; 'I' for Inactive)
REMARK    1  A    between atoms: C_1  and  C_2
REMARK    2  A    between atoms: C_5  and  S_6
REMARK    3  A    between atoms: S_6  and  N_9
REMARK    4  A    between atoms: C_13  and  N_14
REMARK    5  A    between atoms: C_15  and  C_17
REMARK                            x       y       z     vdW  Elec       q    Type
REMARK                         _______ _______ _______ _____ _____    ______ ____
ROOT
ATOM      1  N   UNL     1      -8.836  -7.518  17.913  0.00  0.00    +0.000 NA
ATOM      2  C   UNL     1      -7.598  -6.845  17.502  0.00  0.00    +0.000 C 
ATOM      3  C   UNL     1      -6.838  -6.637  18.818  0.00  0.00    +0.000 C 
ATOM      4  C   UNL     1      -6.333  -5.235  19.248  0.00  0.00    +0.000 C 
ATOM      5  C   UNL     1      -7.787  -4.928  19.675  0.00  0.00    +0.000 C 
ATOM      6  C   UNL     1      -7.960  -6.466  19.867  0.00  0.00    +0.000 C 
ATOM      7  C   UNL     1      -9.200  -7.120  19.281  0.00  0.00    +0.000 C 
ATOM      8  H   UNL     1      -7.821  -5.895  17.007  0.00  0.00    +0.000 HD
ATOM      9  H   UNL     1      -7.017  -7.477  16.825  0.00  0.00    +0.000 HD
ATOM     10  H   UNL     1      -6.146  -7.460  19.034  0.00  0.00    +0.000 HD
ATOM     11  H   UNL     1      -5.917  -4.613  18.452  0.00  0.00    +0.000 HD
ATOM     12  H   UNL     1      -5.612  -5.274  20.075  0.00  0.00    +0.000 HD
ATOM     13  H   UNL     1      -8.372  -4.492  18.855  0.00  0.00    +0.000 HD
ATOM     14  H   UNL     1      -7.696  -6.824  20.872  0.00  0.00    +0.000 HD
ATOM     15  H   UNL     1     -10.038  -6.422  19.303  0.00  0.00    +0.000 HD
ATOM     16  H   UNL     1      -9.466  -8.014  19.852  0.00  0.00    +0.000 HD
ENDROOT
BRANCH   5  17
ATOM     17  N   UNL     1      -7.943  -4.152  20.909  0.00  0.00    +0.000 N 
ATOM     18  C   UNL     1      -8.674  -2.980  20.927  0.00  0.00    +0.000 C 
ATOM     19  O   UNL     1      -9.201  -2.524  19.916  0.00  0.00    +0.000 OA
ATOM     20  H   UNL     1      -7.573  -4.493  21.786  0.00  0.00    +0.000 HD
BRANCH  18  21
ATOM     21  C   UNL     1      -8.803  -2.344  22.216  0.00  0.00    +0.000 A 
ATOM     22  C   UNL     1      -8.841  -1.013  22.594  0.00  0.00    +0.000 A 
ATOM     23  C   UNL     1      -8.895  -0.952  24.011  0.00  0.00    +0.000 A 
ATOM     24  C   UNL     1      -8.906   0.108  24.937  0.00  0.00    +0.000 A 
ATOM     25  C   UNL     1      -8.941  -0.185  26.304  0.00  0.00    +0.000 A 
ATOM     26  C   UNL     1      -8.975  -1.504  26.736  0.00  0.00    +0.000 A 
ATOM     27  F   UNL     1      -9.001  -1.756  28.053  0.00  0.00    +0.000 F 
ATOM     28  C   UNL     1      -8.978  -2.576  25.843  0.00  0.00    +0.000 A 
ATOM     29  C   UNL     1      -8.930  -2.265  24.480  0.00  0.00    +0.000 A 
ATOM     30  N   UNL     1      -8.901  -3.086  23.375  0.00  0.00    +0.000 N 
ATOM     31  H   UNL     1      -8.804  -0.156  21.936  0.00  0.00    +0.000 HD
ATOM     32  H   UNL     1      -8.877   1.138  24.597  0.00  0.00    +0.000 HD
ATOM     33  H   UNL     1      -8.934   0.618  27.035  0.00  0.00    +0.000 HD
ATOM     34  H   UNL     1      -9.005  -3.596  26.206  0.00  0.00    +0.000 HD
ATOM     35  H   UNL     1      -8.908  -4.096  23.394  0.00  0.00    +0.000 HD
ENDBRANCH  18  21
ENDBRANCH   5  17
BRANCH   1  36
ATOM     36  S   UNL     1     -10.018  -7.958  16.809  0.00  0.00    +0.000 S 
ATOM     37  O   UNL     1      -9.836  -7.137  15.630  0.00  0.00    +0.000 OA
ATOM     38  O   UNL     1     -11.287  -7.993  17.505  0.00  0.00    +0.000 OA
BRANCH  36  42
ATOM     39  C   UNL     1      -8.864 -12.236  15.660  0.00  0.00    +0.000 A 
ATOM     40  C   UNL     1      -9.161 -11.295  14.663  0.00  0.00    +0.000 A 
ATOM     41  C   UNL     1      -9.527  -9.989  15.003  0.00  0.00    +0.000 A 
ATOM     42  C   UNL     1      -9.603  -9.626  16.348  0.00  0.00    +0.000 A 
ATOM     43  C   UNL     1      -9.258 -10.542  17.349  0.00  0.00    +0.000 A 
ATOM     44  C   UNL     1      -8.903 -11.846  17.004  0.00  0.00    +0.000 A 
ATOM     45  H   UNL     1      -9.105 -11.574  13.613  0.00  0.00    +0.000 HD
ATOM     46  H   UNL     1      -9.736  -9.265  14.220  0.00  0.00    +0.000 HD
ATOM     47  H   UNL     1      -9.269 -10.252  18.398  0.00  0.00    +0.000 HD
ATOM     48  H   UNL     1      -8.654 -12.557  17.790  0.00  0.00    +0.000 HD
BRANCH  39  49
ATOM     49  C   UNL     1      -8.498 -13.649  15.309  0.00  0.00    +0.000 C 
ATOM     50  H   UNL     1      -9.387 -14.268  15.158  0.00  0.00    +0.000 HD
ATOM     51  H   UNL     1      -7.914 -14.098  16.122  0.00  0.00    +0.000 HD
ATOM     52  H   UNL     1      -7.908 -13.672  14.388  0.00  0.00    +0.000 HD
ENDBRANCH  39  49
ENDBRANCH  36  42
ENDBRANCH   1  36
TORSDOF 5
ENDMDL
MODEL 2
REMARK VINA RESULT:   -11.841      1.096      1.467
REMARK INTER + INTRA:         -15.639
REMARK INTER:                 -14.968
REMARK INTRA:                  -0.671
REMARK UNBOUND:                -0.684
REMARK  Name = 
REMARK  5 active torsions:
REMARK  status: ('A' for Active; 'I' for Inactive)
REMARK    1  A    between atoms: C_1  and  C_2
REMARK    2  A    between atoms: C_5  and  S_6
REMARK    3  A    between atoms: S_6  and  N_9
REMARK    4  A    between atoms: C_13  and  N_14
REMARK    5  A    between atoms: C_15  and  C_17
REMARK                            x       y       z     vdW  Elec       q    Type
REMARK                         _______ _______ _______ _____ _____    ______ ____
ROOT
ATOM      1  N   UNL     1      -8.676  -7.343  18.011  0.00  0.00    +0.000 NA
ATOM      2  C   UNL     1      -7.362  -6.813  17.628  0.00  0.00    +0.000 C 
ATOM      3  C   UNL     1      -6.634  -6.633  18.965  0.00  0.00    +0.000 C 
ATOM      4  C   UNL     1      -6.005  -5.273  19.367  0.00  0.00    +0.000 C 
ATOM      5  C   UNL     1      -7.436  -4.805  19.724  0.00  0.00    +0.000 C 
ATOM      6  C   UNL     1      -7.772  -6.311  19.962  0.00  0.00    +0.000 C 
ATOM      7  C   UNL     1      -9.049  -6.858  19.348  0.00  0.00    +0.000 C 
ATOM      8  H   UNL     1      -7.469  -5.864  17.092  0.00  0.00    +0.000 HD
ATOM      9  H   UNL     1      -6.824  -7.525  16.997  0.00  0.00    +0.000 HD
ATOM     10  H   UNL     1      -6.038  -7.512  19.237  0.00  0.00    +0.000 HD
ATOM     11  H   UNL     1      -5.500  -4.726  18.569  0.00  0.00    +0.000 HD
ATOM     12  H   UNL     1      -5.323  -5.352  20.224  0.00  0.00    +0.000 HD
ATOM     13  H   UNL     1      -7.943  -4.345  18.867  0.00  0.00    +0.000 HD
ATOM     14  H   UNL     1      -7.582  -6.654  20.988  0.00  0.00    +0.000 HD
ATOM     15  H   UNL     1      -9.812  -6.080  19.312  0.00  0.00    +0.000 HD
ATOM     16  H   UNL     1      -9.426  -7.699  19.938  0.00  0.00    +0.000 HD
ENDROOT
BRANCH   5  17
ATOM     17  N   UNL     1      -7.558  -3.971  20.924  0.00  0.00    +0.000 N 
ATOM     18  C   UNL     1      -8.404  -2.880  20.950  0.00  0.00    +0.000 C 
ATOM     19  O   UNL     1      -9.068  -2.544  19.973  0.00  0.00    +0.000 OA
ATOM     20  H   UNL     1      -7.074  -4.216  21.777  0.00  0.00    +0.000 HD
BRANCH  18  21
ATOM     21  C   UNL     1      -8.479  -2.179  22.209  0.00  0.00    +0.000 A 
ATOM     22  C   UNL     1      -8.761  -2.608  23.494  0.00  0.00    +0.000 A 
ATOM     23  C   UNL     1      -8.783  -1.476  24.350  0.00  0.00    +0.000 A 
ATOM     24  C   UNL     1      -9.054  -1.299  25.719  0.00  0.00    +0.000 A 
ATOM     25  C   UNL     1      -9.013  -0.010  26.259  0.00  0.00    +0.000 A 
ATOM     26  C   UNL     1      -8.699   1.077  25.453  0.00  0.00    +0.000 A 
ATOM     27  F   UNL     1      -8.674   2.303  25.996  0.00  0.00    +0.000 F 
ATOM     28  C   UNL     1      -8.414   0.932  24.095  0.00  0.00    +0.000 A 
ATOM     29  C   UNL     1      -8.472  -0.363  23.569  0.00  0.00    +0.000 A 
ATOM     30  N   UNL     1      -8.265  -0.818  22.286  0.00  0.00    +0.000 N 
ATOM     31  H   UNL     1      -8.963  -3.624  23.804  0.00  0.00    +0.000 HD
ATOM     32  H   UNL     1      -9.301  -2.149  26.348  0.00  0.00    +0.000 HD
ATOM     33  H   UNL     1      -9.234   0.150  27.311  0.00  0.00    +0.000 HD
ATOM     34  H   UNL     1      -8.171   1.796  23.488  0.00  0.00    +0.000 HD
ATOM     35  H   UNL     1      -8.030  -0.242  21.491  0.00  0.00    +0.000 HD
ENDBRANCH  18  21
ENDBRANCH   5  17
BRANCH   1  36
ATOM     36  S   UNL     1      -9.855  -7.704  16.875  0.00  0.00    +0.000 S 
ATOM     37  O   UNL     1      -9.620  -6.858  15.723  0.00  0.00    +0.000 OA
ATOM     38  O   UNL     1     -11.138  -7.706  17.549  0.00  0.00    +0.000 OA
BRANCH  36  42
ATOM     39  C   UNL     1      -8.855 -11.993  15.627  0.00  0.00    +0.000 A 
ATOM     40  C   UNL     1      -9.059 -11.006  14.653  0.00  0.00    +0.000 A 
ATOM     41  C   UNL     1      -9.378  -9.694  15.022  0.00  0.00    +0.000 A 
ATOM     42  C   UNL     1      -9.500  -9.374  16.374  0.00  0.00    +0.000 A 
ATOM     43  C   UNL     1      -9.248 -10.339  17.356  0.00  0.00    +0.000 A 
ATOM     44  C   UNL     1      -8.940 -11.646  16.981  0.00  0.00    +0.000 A 
ATOM     45  H   UNL     1      -8.967 -11.252  13.597  0.00  0.00    +0.000 HD
ATOM     46  H   UNL     1      -9.514  -8.936  14.256  0.00  0.00    +0.000 HD
ATOM     47  H   UNL     1      -9.295 -10.084  18.413  0.00  0.00    +0.000 HD
ATOM     48  H   UNL     1      -8.763 -12.395  17.752  0.00  0.00    +0.000 HD
BRANCH  39  49
ATOM     49  C   UNL     1      -8.542 -13.410  15.244  0.00  0.00    +0.000 C 
ATOM     50  H   UNL     1      -7.474 -13.625  15.338  0.00  0.00    +0.000 HD
ATOM     51  H   UNL     1      -8.827 -13.588  14.200  0.00  0.00    +0.000 HD
ATOM     52  H   UNL     1      -9.086 -14.107  15.888  0.00  0.00    +0.000 HD
ENDBRANCH  39  49
ENDBRANCH  36  42
ENDBRANCH   1  36
TORSDOF 5
ENDMDL
MODEL 3
REMARK VINA RESULT:   -10.989      1.475      1.741
REMARK INTER + INTRA:         -14.564
REMARK INTER:                 -13.909
REMARK INTRA:                  -0.655
REMARK UNBOUND:                -0.684
REMARK  Name = 
REMARK  5 active torsions:
REMARK  status: ('A' for Active; 'I' for Inactive)
REMARK    1  A    between atoms: C_1  and  C_2
REMARK    2  A    between atoms: C_5  and  S_6
REMARK    3  A    between atoms: S_6  and  N_9
REMARK    4  A    between atoms: C_13  and  N_14
REMARK    5  A    between atoms: C_15  and  C_17
REMARK                            x       y       z     vdW  Elec       q    Type
REMARK                         _______ _______ _______ _____ _____    ______ ____
ROOT
ATOM      1  N   UNL     1      -9.184  -7.198  17.849  0.00  0.00    +0.000 NA
ATOM      2  C   UNL     1      -7.728  -7.077  17.986  0.00  0.00    +0.000 C 
ATOM      3  C   UNL     1      -7.525  -6.731  19.466  0.00  0.00    +0.000 C 
ATOM      4  C   UNL     1      -6.713  -5.483  19.901  0.00  0.00    +0.000 C 
ATOM      5  C   UNL     1      -7.964  -4.644  19.553  0.00  0.00    +0.000 C 
ATOM      6  C   UNL     1      -8.796  -5.933  19.834  0.00  0.00    +0.000 C 
ATOM      7  C   UNL     1      -9.859  -6.327  18.823  0.00  0.00    +0.000 C 
ATOM      8  H   UNL     1      -7.342  -6.292  17.328  0.00  0.00    +0.000 HD
ATOM      9  H   UNL     1      -7.234  -8.023  17.747  0.00  0.00    +0.000 HD
ATOM     10  H   UNL     1      -7.362  -7.623  20.084  0.00  0.00    +0.000 HD
ATOM     11  H   UNL     1      -5.810  -5.275  19.322  0.00  0.00    +0.000 HD
ATOM     12  H   UNL     1      -6.451  -5.493  20.968  0.00  0.00    +0.000 HD
ATOM     13  H   UNL     1      -7.958  -4.313  18.506  0.00  0.00    +0.000 HD
ATOM     14  H   UNL     1      -9.110  -6.043  20.882  0.00  0.00    +0.000 HD
ATOM     15  H   UNL     1     -10.286  -5.436  18.360  0.00  0.00    +0.000 HD
ATOM     16  H   UNL     1     -10.659  -6.892  19.310  0.00  0.00    +0.000 HD
ENDROOT
BRANCH   5  17
ATOM     17  N   UNL     1      -8.264  -3.531  20.460  0.00  0.00    +0.000 N 
ATOM     18  C   UNL     1      -9.122  -2.516  20.083  0.00  0.00    +0.000 C 
ATOM     19  O   UNL     1      -9.650  -2.485  18.975  0.00  0.00    +0.000 OA
ATOM     20  H   UNL     1      -7.898  -3.518  21.402  0.00  0.00    +0.000 HD
BRANCH  18  21
ATOM     21  C   UNL     1      -9.381  -1.514  21.088  0.00  0.00    +0.000 A 
ATOM     22  C   UNL     1     -10.294  -0.476  21.149  0.00  0.00    +0.000 A 
ATOM     23  C   UNL     1     -10.057   0.260  22.339  0.00  0.00    +0.000 A 
ATOM     24  C   UNL     1     -10.631   1.419  22.895  0.00  0.00    +0.000 A 
ATOM     25  C   UNL     1     -10.133   1.910  24.106  0.00  0.00    +0.000 A 
ATOM     26  C   UNL     1      -9.094   1.254  24.753  0.00  0.00    +0.000 A 
ATOM     27  F   UNL     1      -8.632   1.750  25.909  0.00  0.00    +0.000 F 
ATOM     28  C   UNL     1      -8.513   0.097  24.233  0.00  0.00    +0.000 A 
ATOM     29  C   UNL     1      -9.015  -0.373  23.015  0.00  0.00    +0.000 A 
ATOM     30  N   UNL     1      -8.643  -1.457  22.252  0.00  0.00    +0.000 N 
ATOM     31  H   UNL     1     -11.044  -0.234  20.408  0.00  0.00    +0.000 HD
ATOM     32  H   UNL     1     -11.442   1.932  22.386  0.00  0.00    +0.000 HD
ATOM     33  H   UNL     1     -10.553   2.811  24.544  0.00  0.00    +0.000 HD
ATOM     34  H   UNL     1      -7.703  -0.397  24.758  0.00  0.00    +0.000 HD
ATOM     35  H   UNL     1      -7.905  -2.109  22.480  0.00  0.00    +0.000 HD
ENDBRANCH  18  21
ENDBRANCH   5  17
BRANCH   1  36
ATOM     36  S   UNL     1      -9.913  -7.566  16.385  0.00  0.00    +0.000 S 
ATOM     37  O   UNL     1      -9.243  -6.791  15.361  0.00  0.00    +0.000 OA
ATOM     38  O   UNL     1     -11.347  -7.481  16.567  0.00  0.00    +0.000 OA
BRANCH  36  42
ATOM     39  C   UNL     1      -8.778 -11.948  15.699  0.00  0.00    +0.000 A 
ATOM     40  C   UNL     1      -8.724 -11.032  14.639  0.00  0.00    +0.000 A 
ATOM     41  C   UNL     1      -9.080  -9.694  14.834  0.00  0.00    +0.000 A 
ATOM     42  C   UNL     1      -9.501  -9.273  16.096  0.00  0.00    +0.000 A 
ATOM     43  C   UNL     1      -9.509 -10.166  17.173  0.00  0.00    +0.000 A 
ATOM     44  C   UNL     1      -9.162 -11.502  16.970  0.00  0.00    +0.000 A 
ATOM     45  H   UNL     1      -8.398 -11.356  13.652  0.00  0.00    +0.000 HD
ATOM     46  H   UNL     1      -9.014  -8.991  14.007  0.00  0.00    +0.000 HD
ATOM     47  H   UNL     1      -9.791  -9.834  18.170  0.00  0.00    +0.000 HD
ATOM     48  H   UNL     1      -9.189 -12.194  17.810  0.00  0.00    +0.000 HD
BRANCH  39  49
ATOM     49  C   UNL     1      -8.427 -13.393  15.497  0.00  0.00    +0.000 C 
ATOM     50  H   UNL     1      -7.859 -13.543  14.574  0.00  0.00    +0.000 HD
ATOM     51  H   UNL     1      -9.341 -13.995  15.428  0.00  0.00    +0.000 HD
ATOM     52  H   UNL     1      -7.820 -13.757  16.331  0.00  0.00    +0.000 HD
ENDBRANCH  39  49
ENDBRANCH  36  42
ENDBRANCH   1  36
TORSDOF 5
ENDMDL
MODEL 4
REMARK VINA RESULT:   -10.967      3.893     10.441
REMARK INTER + INTRA:         -14.536
REMARK INTER:                 -14.209
REMARK INTRA:                  -0.328
REMARK UNBOUND:                -0.684
REMARK  Name = 
REMARK  5 active torsions:
REMARK  status: ('A' for Active; 'I' for Inactive)
REMARK    1  A    between atoms: C_1  and  C_2
REMARK    2  A    between atoms: C_5  and  S_6
REMARK    3  A    between atoms: S_6  and  N_9
REMARK    4  A    between atoms: C_13  and  N_14
REMARK    5  A    between atoms: C_15  and  C_17
REMARK                            x       y       z     vdW  Elec       q    Type
REMARK                         _______ _______ _______ _____ _____    ______ ____
ROOT
ATOM      1  N   UNL     1      -9.082  -2.751  20.357  0.00  0.00    +0.000 NA
ATOM      2  C   UNL     1      -8.003  -3.268  21.208  0.00  0.00    +0.000 C 
ATOM      3  C   UNL     1      -7.078  -3.999  20.227  0.00  0.00    +0.000 C 
ATOM      4  C   UNL     1      -6.671  -5.479  20.450  0.00  0.00    +0.000 C 
ATOM      5  C   UNL     1      -8.068  -5.864  19.910  0.00  0.00    +0.000 C 
ATOM      6  C   UNL     1      -8.039  -4.512  19.130  0.00  0.00    +0.000 C 
ATOM      7  C   UNL     1      -9.274  -3.630  19.193  0.00  0.00    +0.000 C 
ATOM      8  H   UNL     1      -8.402  -3.943  21.971  0.00  0.00    +0.000 HD
ATOM      9  H   UNL     1      -7.466  -2.450  21.696  0.00  0.00    +0.000 HD
ATOM     10  H   UNL     1      -6.275  -3.354  19.851  0.00  0.00    +0.000 HD
ATOM     11  H   UNL     1      -6.453  -5.764  21.482  0.00  0.00    +0.000 HD
ATOM     12  H   UNL     1      -5.832  -5.793  19.815  0.00  0.00    +0.000 HD
ATOM     13  H   UNL     1      -8.816  -5.924  20.710  0.00  0.00    +0.000 HD
ATOM     14  H   UNL     1      -7.587  -4.581  18.131  0.00  0.00    +0.000 HD
ATOM     15  H   UNL     1     -10.171  -4.245  19.280  0.00  0.00    +0.000 HD
ATOM     16  H   UNL     1      -9.350  -3.015  18.292  0.00  0.00    +0.000 HD
ENDROOT
BRANCH   5  17
ATOM     17  N   UNL     1      -8.119  -7.048  19.046  0.00  0.00    +0.000 N 
ATOM     18  C   UNL     1      -8.619  -8.248  19.511  0.00  0.00    +0.000 C 
ATOM     19  O   UNL     1      -9.019  -8.387  20.663  0.00  0.00    +0.000 OA
ATOM     20  H   UNL     1      -7.847  -6.992  18.074  0.00  0.00    +0.000 HD
BRANCH  18  21
ATOM     21  C   UNL     1      -8.671  -9.319  18.544  0.00  0.00    +0.000 A 
ATOM     22  C   UNL     1      -8.959  -9.333  17.191  0.00  0.00    +0.000 A 
ATOM     23  C   UNL     1      -8.947 -10.681  16.745  0.00  0.00    +0.000 A 
ATOM     24  C   UNL     1      -9.208 -11.296  15.507  0.00  0.00    +0.000 A 
ATOM     25  C   UNL     1      -9.131 -12.689  15.410  0.00  0.00    +0.000 A 
ATOM     26  C   UNL     1      -8.790 -13.450  16.521  0.00  0.00    +0.000 A 
ATOM     27  F   UNL     1      -8.730 -14.783  16.402  0.00  0.00    +0.000 F 
ATOM     28  C   UNL     1      -8.514 -12.868  17.759  0.00  0.00    +0.000 A 
ATOM     29  C   UNL     1      -8.609 -11.475  17.841  0.00  0.00    +0.000 A 
ATOM     30  N   UNL     1      -8.420 -10.626  18.908  0.00  0.00    +0.000 N 
ATOM     31  H   UNL     1      -9.187  -8.477  16.572  0.00  0.00    +0.000 HD
ATOM     32  H   UNL     1      -9.476 -10.700  14.640  0.00  0.00    +0.000 HD
ATOM     33  H   UNL     1      -9.343 -13.184  14.467  0.00  0.00    +0.000 HD
ATOM     34  H   UNL     1      -8.251 -13.484  18.611  0.00  0.00    +0.000 HD
ATOM     35  H   UNL     1      -8.172 -10.909  19.846  0.00  0.00    +0.000 HD
ENDBRANCH  18  21
ENDBRANCH   5  17
BRANCH   1  36
ATOM     36  S   UNL     1     -10.363  -1.869  20.982  0.00  0.00    +0.000 S 
ATOM     37  O   UNL     1     -11.560  -2.665  20.810  0.00  0.00    +0.000 OA
ATOM     38  O   UNL     1     -10.279  -0.524  20.451  0.00  0.00    +0.000 OA
BRANCH  36  42
ATOM     39  C   UNL     1      -9.447  -1.693  25.463  0.00  0.00    +0.000 A 
ATOM     40  C   UNL     1     -10.470  -2.524  24.986  0.00  0.00    +0.000 A 
ATOM     41  C   UNL     1     -10.767  -2.576  23.620  0.00  0.00    +0.000 A 
ATOM     42  C   UNL     1     -10.040  -1.786  22.730  0.00  0.00    +0.000 A 
ATOM     43  C   UNL     1      -8.982  -0.993  23.189  0.00  0.00    +0.000 A 
ATOM     44  C   UNL     1      -8.697  -0.937  24.553  0.00  0.00    +0.000 A 
ATOM     45  H   UNL     1     -11.041  -3.141  25.677  0.00  0.00    +0.000 HD
ATOM     46  H   UNL     1     -11.550  -3.240  23.263  0.00  0.00    +0.000 HD
ATOM     47  H   UNL     1      -8.380  -0.410  22.494  0.00  0.00    +0.000 HD
ATOM     48  H   UNL     1      -7.885  -0.303  24.903  0.00  0.00    +0.000 HD
BRANCH  39  49
ATOM     49  C   UNL     1      -9.137  -1.606  26.929  0.00  0.00    +0.000 C 
ATOM     50  H   UNL     1      -8.072  -1.759  27.125  0.00  0.00    +0.000 HD
ATOM     51  H   UNL     1      -9.691  -2.378  27.477  0.00  0.00    +0.000 HD
ATOM     52  H   UNL     1      -9.415  -0.621  27.318  0.00  0.00    +0.000 HD
ENDBRANCH  39  49
ENDBRANCH  36  42
ENDBRANCH   1  36
TORSDOF 5
ENDMDL
MODEL 5
REMARK VINA RESULT:   -10.847      4.524     10.200
REMARK INTER + INTRA:         -14.385
REMARK INTER:                 -13.762
REMARK INTRA:                  -0.623
REMARK UNBOUND:                -0.684
REMARK  Name = 
REMARK  5 active torsions:
REMARK  status: ('A' for Active; 'I' for Inactive)
REMARK    1  A    between atoms: C_1  and  C_2
REMARK    2  A    between atoms: C_5  and  S_6
REMARK    3  A    between atoms: S_6  and  N_9
REMARK    4  A    between atoms: C_13  and  N_14
REMARK    5  A    between atoms: C_15  and  C_17
REMARK                            x       y       z     vdW  Elec       q    Type
REMARK                         _______ _______ _______ _____ _____    ______ ____
ROOT
ATOM      1  N   UNL     1     -11.334  -1.977  18.131  0.00  0.00    +0.000 NA
ATOM      2  C   UNL     1     -11.511  -1.908  16.675  0.00  0.00    +0.000 C 
ATOM      3  C   UNL     1     -12.231  -3.216  16.329  0.00  0.00    +0.000 C 
ATOM      4  C   UNL     1     -11.672  -4.189  15.258  0.00  0.00    +0.000 C 
ATOM      5  C   UNL     1     -10.660  -4.662  16.328  0.00  0.00    +0.000 C 
ATOM      6  C   UNL     1     -11.711  -4.213  17.391  0.00  0.00    +0.000 C 
ATOM      7  C   UNL     1     -11.224  -3.378  18.562  0.00  0.00    +0.000 C 
ATOM      8  H   UNL     1     -10.542  -1.831  16.171  0.00  0.00    +0.000 HD
ATOM      9  H   UNL     1     -12.130  -1.050  16.398  0.00  0.00    +0.000 HD
ATOM     10  H   UNL     1     -13.322  -3.102  16.320  0.00  0.00    +0.000 HD
ATOM     11  H   UNL     1     -11.252  -3.724  14.363  0.00  0.00    +0.000 HD
ATOM     12  H   UNL     1     -12.400  -4.951  14.949  0.00  0.00    +0.000 HD
ATOM     13  H   UNL     1      -9.736  -4.071  16.309  0.00  0.00    +0.000 HD
ATOM     14  H   UNL     1     -12.432  -4.996  17.665  0.00  0.00    +0.000 HD
ATOM     15  H   UNL     1     -10.201  -3.655  18.821  0.00  0.00    +0.000 HD
ATOM     16  H   UNL     1     -11.865  -3.533  19.434  0.00  0.00    +0.000 HD
ENDROOT
BRANCH   5  17
ATOM     17  N   UNL     1     -10.371  -6.100  16.348  0.00  0.00    +0.000 N 
ATOM     18  C   UNL     1      -9.361  -6.613  17.137  0.00  0.00    +0.000 C 
ATOM     19  O   UNL     1      -8.649  -5.896  17.835  0.00  0.00    +0.000 OA
ATOM     20  H   UNL     1     -10.946  -6.751  15.831  0.00  0.00    +0.000 HD
BRANCH  18  21
ATOM     21  C   UNL     1      -9.218  -8.048  17.113  0.00  0.00    +0.000 A 
ATOM     22  C   UNL     1      -9.034  -8.979  18.120  0.00  0.00    +0.000 A 
ATOM     23  C   UNL     1      -8.870 -10.257  17.524  0.00  0.00    +0.000 A 
ATOM     24  C   UNL     1      -8.612 -11.542  18.038  0.00  0.00    +0.000 A 
ATOM     25  C   UNL     1      -8.481 -12.614  17.150  0.00  0.00    +0.000 A 
ATOM     26  C   UNL     1      -8.614 -12.411  15.783  0.00  0.00    +0.000 A 
ATOM     27  F   UNL     1      -8.476 -13.456  14.954  0.00  0.00    +0.000 F 
ATOM     28  C   UNL     1      -8.882 -11.152  15.244  0.00  0.00    +0.000 A 
ATOM     29  C   UNL     1      -8.998 -10.089  16.146  0.00  0.00    +0.000 A 
ATOM     30  N   UNL     1      -9.235  -8.751  15.926  0.00  0.00    +0.000 N 
ATOM     31  H   UNL     1      -8.988  -8.779  19.182  0.00  0.00    +0.000 HD
ATOM     32  H   UNL     1      -8.506 -11.698  19.107  0.00  0.00    +0.000 HD
ATOM     33  H   UNL     1      -8.266 -13.611  17.525  0.00  0.00    +0.000 HD
ATOM     34  H   UNL     1      -8.982 -11.021  14.174  0.00  0.00    +0.000 HD
ATOM     35  H   UNL     1      -9.365  -8.319  15.021  0.00  0.00    +0.000 HD
ENDBRANCH  18  21
ENDBRANCH   5  17
BRANCH   1  36
ATOM     36  S   UNL     1     -10.576  -0.756  18.994  0.00  0.00    +0.000 S 
ATOM     37  O   UNL     1     -11.425   0.415  18.923  0.00  0.00    +0.000 OA
ATOM     38  O   UNL     1      -9.193  -0.701  18.567  0.00  0.00    +0.000 OA
BRANCH  36  42
ATOM     39  C   UNL     1     -10.671  -2.108  23.366  0.00  0.00    +0.000 A 
ATOM     40  C   UNL     1      -9.470  -2.146  22.643  0.00  0.00    +0.000 A 
ATOM     41  C   UNL     1      -9.432  -1.747  21.303  0.00  0.00    +0.000 A 
ATOM     42  C   UNL     1     -10.604  -1.316  20.682  0.00  0.00    +0.000 A 
ATOM     43  C   UNL     1     -11.798  -1.224  21.409  0.00  0.00    +0.000 A 
ATOM     44  C   UNL     1     -11.831  -1.633  22.742  0.00  0.00    +0.000 A 
ATOM     45  H   UNL     1      -8.553  -2.484  23.122  0.00  0.00    +0.000 HD
ATOM     46  H   UNL     1      -8.490  -1.764  20.761  0.00  0.00    +0.000 HD
ATOM     47  H   UNL     1     -12.705  -0.844  20.944  0.00  0.00    +0.000 HD
ATOM     48  H   UNL     1     -12.767  -1.576  23.294  0.00  0.00    +0.000 HD
BRANCH  39  49
ATOM     49  C   UNL     1     -10.731  -2.561  24.795  0.00  0.00    +0.000 C 
ATOM     50  H   UNL     1     -11.524  -3.299  24.950  0.00  0.00    +0.000 HD
ATOM     51  H   UNL     1     -10.939  -1.707  25.451  0.00  0.00    +0.000 HD
ATOM     52  H   UNL     1      -9.781  -3.017  25.090  0.00  0.00    +0.000 HD
ENDBRANCH  39  49
ENDBRANCH  36  42
ENDBRANCH   1  36
TORSDOF 5
ENDMDL
MODEL 6
REMARK VINA RESULT:   -10.809      4.241      9.803
REMARK INTER + INTRA:         -14.337
REMARK INTER:                 -13.497
REMARK INTRA:                  -0.839
REMARK UNBOUND:                -0.684
REMARK  Name = 
REMARK  5 active torsions:
REMARK  status: ('A' for Active; 'I' for Inactive)
REMARK    1  A    between atoms: C_1  and  C_2
REMARK    2  A    between atoms: C_5  and  S_6
REMARK    3  A    between atoms: S_6  and  N_9
REMARK    4  A    between atoms: C_13  and  N_14
REMARK    5  A    between atoms: C_15  and  C_17
REMARK                            x       y       z     vdW  Elec       q    Type
REMARK                         _______ _______ _______ _____ _____    ______ ____
ROOT
ATOM      1  N   UNL     1     -11.600  -1.333  20.045  0.00  0.00    +0.000 NA
ATOM      2  C   UNL     1     -10.898  -0.952  18.813  0.00  0.00    +0.000 C 
ATOM      3  C   UNL     1     -11.372  -1.987  17.785  0.00  0.00    +0.000 C 
ATOM      4  C   UNL     1     -10.363  -2.835  16.967  0.00  0.00    +0.000 C 
ATOM      5  C   UNL     1     -10.189  -3.707  18.232  0.00  0.00    +0.000 C 
ATOM      6  C   UNL     1     -11.628  -3.255  18.632  0.00  0.00    +0.000 C 
ATOM      7  C   UNL     1     -11.852  -2.782  20.058  0.00  0.00    +0.000 C 
ATOM      8  H   UNL     1      -9.814  -0.990  18.958  0.00  0.00    +0.000 HD
ATOM      9  H   UNL     1     -11.185   0.054  18.496  0.00  0.00    +0.000 HD
ATOM     10  H   UNL     1     -12.246  -1.644  17.220  0.00  0.00    +0.000 HD
ATOM     11  H   UNL     1      -9.474  -2.309  16.612  0.00  0.00    +0.000 HD
ATOM     12  H   UNL     1     -10.827  -3.351  16.116  0.00  0.00    +0.000 HD
ATOM     13  H   UNL     1      -9.386  -3.334  18.880  0.00  0.00    +0.000 HD
ATOM     14  H   UNL     1     -12.425  -3.904  18.243  0.00  0.00    +0.000 HD
ATOM     15  H   UNL     1     -11.188  -3.314  20.739  0.00  0.00    +0.000 HD
ATOM     16  H   UNL     1     -12.888  -2.959  20.360  0.00  0.00    +0.000 HD
ENDROOT
BRANCH   5  17
ATOM     17  N   UNL     1     -10.060  -5.151  18.004  0.00  0.00    +0.000 N 
ATOM     18  C   UNL     1      -8.988  -5.859  18.509  0.00  0.00    +0.000 C 
ATOM     19  O   UNL     1      -8.088  -5.317  19.146  0.00  0.00    +0.000 OA
ATOM     20  H   UNL     1     -10.787  -5.666  17.527  0.00  0.00    +0.000 HD
BRANCH  18  21
ATOM     21  C   UNL     1      -9.010  -7.281  18.268  0.00  0.00    +0.000 A 
ATOM     22  C   UNL     1      -8.779  -8.366  19.095  0.00  0.00    +0.000 A 
ATOM     23  C   UNL     1      -8.850  -9.549  18.313  0.00  0.00    +0.000 A 
ATOM     24  C   UNL     1      -8.661 -10.914  18.598  0.00  0.00    +0.000 A 
ATOM     25  C   UNL     1      -8.785 -11.847  17.564  0.00  0.00    +0.000 A 
ATOM     26  C   UNL     1      -9.102 -11.429  16.278  0.00  0.00    +0.000 A 
ATOM     27  F   UNL     1      -9.209 -12.345  15.305  0.00  0.00    +0.000 F 
ATOM     28  C   UNL     1      -9.308 -10.084  15.967  0.00  0.00    +0.000 A 
ATOM     29  C   UNL     1      -9.167  -9.164  17.011  0.00  0.00    +0.000 A 
ATOM     30  N   UNL     1      -9.285  -7.792  17.016  0.00  0.00    +0.000 N 
ATOM     31  H   UNL     1      -8.550  -8.333  20.151  0.00  0.00    +0.000 HD
ATOM     32  H   UNL     1      -8.411 -11.239  19.603  0.00  0.00    +0.000 HD
ATOM     33  H   UNL     1      -8.628 -12.904  17.760  0.00  0.00    +0.000 HD
ATOM     34  H   UNL     1      -9.556  -9.784  14.956  0.00  0.00    +0.000 HD
ATOM     35  H   UNL     1      -9.503  -7.219  16.213  0.00  0.00    +0.000 HD
ENDBRANCH  18  21
ENDBRANCH   5  17
BRANCH   1  36
ATOM     36  S   UNL     1     -11.400  -0.488  21.479  0.00  0.00    +0.000 S 
ATOM     37  O   UNL     1     -12.696  -0.415  22.121  0.00  0.00    +0.000 OA
ATOM     38  O   UNL     1     -10.643   0.712  21.188  0.00  0.00    +0.000 OA
BRANCH  36  42
ATOM     39  C   UNL     1      -8.779  -3.142  24.133  0.00  0.00    +0.000 A 
ATOM     40  C   UNL     1      -8.283  -2.655  22.915  0.00  0.00    +0.000 A 
ATOM     41  C   UNL     1      -9.079  -1.854  22.090  0.00  0.00    +0.000 A 
ATOM     42  C   UNL     1     -10.382  -1.546  22.484  0.00  0.00    +0.000 A 
ATOM     43  C   UNL     1     -10.869  -1.983  23.722  0.00  0.00    +0.000 A 
ATOM     44  C   UNL     1     -10.073  -2.789  24.535  0.00  0.00    +0.000 A 
ATOM     45  H   UNL     1      -7.269  -2.895  22.602  0.00  0.00    +0.000 HD
ATOM     46  H   UNL     1      -8.674  -1.468  21.158  0.00  0.00    +0.000 HD
ATOM     47  H   UNL     1     -11.867  -1.707  24.056  0.00  0.00    +0.000 HD
ATOM     48  H   UNL     1     -10.467  -3.140  25.488  0.00  0.00    +0.000 HD
BRANCH  39  49
ATOM     49  C   UNL     1      -7.945  -4.026  25.013  0.00  0.00    +0.000 C 
ATOM     50  H   UNL     1      -7.527  -3.473  25.859  0.00  0.00    +0.000 HD
ATOM     51  H   UNL     1      -7.108  -4.444  24.441  0.00  0.00    +0.000 HD
ATOM     52  H   UNL     1      -8.551  -4.846  25.411  0.00  0.00    +0.000 HD
ENDBRANCH  39  49
ENDBRANCH  36  42
ENDBRANCH   1  36
TORSDOF 5
ENDMDL
MODEL 7
REMARK VINA RESULT:   -10.457      4.011     10.998
REMARK INTER + INTRA:         -13.892
REMARK INTER:                 -13.313
REMARK INTRA:                  -0.579
REMARK UNBOUND:                -0.684
REMARK  Name = 
REMARK  5 active torsions:
REMARK  status: ('A' for Active; 'I' for Inactive)
REMARK    1  A    between atoms: C_1  and  C_2
REMARK    2  A    between atoms: C_5  and  S_6
REMARK    3  A    between atoms: S_6  and  N_9
REMARK    4  A    between atoms: C_13  and  N_14
REMARK    5  A    between atoms: C_15  and  C_17
REMARK                            x       y       z     vdW  Elec       q    Type
REMARK                         _______ _______ _______ _____ _____    ______ ____
ROOT
ATOM      1  N   UNL     1      -9.192  -2.323  22.049  0.00  0.00    +0.000 NA
ATOM      2  C   UNL     1      -7.974  -2.939  22.590  0.00  0.00    +0.000 C 
ATOM      3  C   UNL     1      -7.153  -3.289  21.343  0.00  0.00    +0.000 C 
ATOM      4  C   UNL     1      -6.628  -4.727  21.097  0.00  0.00    +0.000 C 
ATOM      5  C   UNL     1      -8.060  -5.089  20.641  0.00  0.00    +0.000 C 
ATOM      6  C   UNL     1      -8.225  -3.583  20.269  0.00  0.00    +0.000 C 
ATOM      7  C   UNL     1      -9.492  -2.875  20.719  0.00  0.00    +0.000 C 
ATOM      8  H   UNL     1      -8.220  -3.829  23.178  0.00  0.00    +0.000 HD
ATOM      9  H   UNL     1      -7.426  -2.232  23.219  0.00  0.00    +0.000 HD
ATOM     10  H   UNL     1      -6.453  -2.491  21.068  0.00  0.00    +0.000 HD
ATOM     11  H   UNL     1      -6.249  -5.254  21.976  0.00  0.00    +0.000 HD
ATOM     12  H   UNL     1      -5.869  -4.777  20.305  0.00  0.00    +0.000 HD
ATOM     13  H   UNL     1      -8.683  -5.434  21.476  0.00  0.00    +0.000 HD
ATOM     14  H   UNL     1      -7.915  -3.339  19.243  0.00  0.00    +0.000 HD
ATOM     15  H   UNL     1     -10.327  -3.575  20.737  0.00  0.00    +0.000 HD
ATOM     16  H   UNL     1      -9.732  -2.052  20.040  0.00  0.00    +0.000 HD
ENDROOT
BRANCH   5  17
ATOM     17  N   UNL     1      -8.158  -6.000  19.495  0.00  0.00    +0.000 N 
ATOM     18  C   UNL     1      -8.574  -7.307  19.657  0.00  0.00    +0.000 C 
ATOM     19  O   UNL     1      -8.856  -7.771  20.758  0.00  0.00    +0.000 OA
ATOM     20  H   UNL     1      -7.984  -5.670  18.555  0.00  0.00    +0.000 HD
BRANCH  18  21
ATOM     21  C   UNL     1      -8.686  -8.080  18.444  0.00  0.00    +0.000 A 
ATOM     22  C   UNL     1      -8.856  -7.711  17.121  0.00  0.00    +0.000 A 
ATOM     23  C   UNL     1      -8.989  -8.890  16.341  0.00  0.00    +0.000 A 
ATOM     24  C   UNL     1      -9.222  -9.128  14.974  0.00  0.00    +0.000 A 
ATOM     25  C   UNL     1      -9.326 -10.447  14.522  0.00  0.00    +0.000 A 
ATOM     26  C   UNL     1      -9.188 -11.504  15.412  0.00  0.00    +0.000 A 
ATOM     27  F   UNL     1      -9.298 -12.759  14.952  0.00  0.00    +0.000 F 
ATOM     28  C   UNL     1      -8.944 -11.301  16.770  0.00  0.00    +0.000 A 
ATOM     29  C   UNL     1      -8.856  -9.974  17.207  0.00  0.00    +0.000 A 
ATOM     30  N   UNL     1      -8.647  -9.459  18.466  0.00  0.00    +0.000 N 
ATOM     31  H   UNL     1      -8.913  -6.702  16.736  0.00  0.00    +0.000 HD
ATOM     32  H   UNL     1      -9.332  -8.300  14.280  0.00  0.00    +0.000 HD
ATOM     33  H   UNL     1      -9.521 -10.652  13.473  0.00  0.00    +0.000 HD
ATOM     34  H   UNL     1      -8.840 -12.143  17.444  0.00  0.00    +0.000 HD
ATOM     35  H   UNL     1      -8.520 -10.002  19.309  0.00  0.00    +0.000 HD
ENDBRANCH  18  21
ENDBRANCH   5  17
BRANCH   1  36
ATOM     36  S   UNL     1     -10.425  -1.770  23.041  0.00  0.00    +0.000 S 
ATOM     37  O   UNL     1     -10.562  -2.715  24.129  0.00  0.00    +0.000 OA
ATOM     38  O   UNL     1     -11.555  -1.430  22.201  0.00  0.00    +0.000 OA
BRANCH  36  42
ATOM     39  C   UNL     1      -8.856   2.100  24.918  0.00  0.00    +0.000 A 
ATOM     40  C   UNL     1      -9.597   2.144  23.729  0.00  0.00    +0.000 A 
ATOM     41  C   UNL     1     -10.070   0.967  23.139  0.00  0.00    +0.000 A 
ATOM     42  C   UNL     1      -9.794  -0.260  23.741  0.00  0.00    +0.000 A 
ATOM     43  C   UNL     1      -9.100  -0.313  24.956  0.00  0.00    +0.000 A 
ATOM     44  C   UNL     1      -8.623   0.864  25.534  0.00  0.00    +0.000 A 
ATOM     45  H   UNL     1      -9.813   3.099  23.254  0.00  0.00    +0.000 HD
ATOM     46  H   UNL     1     -10.659   1.019  22.227  0.00  0.00    +0.000 HD
ATOM     47  H   UNL     1      -8.922  -1.263  25.456  0.00  0.00    +0.000 HD
ATOM     48  H   UNL     1      -8.069   0.812  26.470  0.00  0.00    +0.000 HD
BRANCH  39  49
ATOM     49  C   UNL     1      -8.318   3.352  25.545  0.00  0.00    +0.000 C 
ATOM     50  H   UNL     1      -7.751   3.135  26.456  0.00  0.00    +0.000 HD
ATOM     51  H   UNL     1      -9.143   4.021  25.818  0.00  0.00    +0.000 HD
ATOM     52  H   UNL     1      -7.652   3.871  24.848  0.00  0.00    +0.000 HD
ENDBRANCH  39  49
ENDBRANCH  36  42
ENDBRANCH   1  36
TORSDOF 5
ENDMDL
MODEL 8
REMARK VINA RESULT:   -10.183      5.022     10.928
REMARK INTER + INTRA:         -13.546
REMARK INTER:                 -12.961
REMARK INTRA:                  -0.585
REMARK UNBOUND:                -0.684
REMARK  Name = 
REMARK  5 active torsions:
REMARK  status: ('A' for Active; 'I' for Inactive)
REMARK    1  A    between atoms: C_1  and  C_2
REMARK    2  A    between atoms: C_5  and  S_6
REMARK    3  A    between atoms: S_6  and  N_9
REMARK    4  A    between atoms: C_13  and  N_14
REMARK    5  A    between atoms: C_15  and  C_17
REMARK                            x       y       z     vdW  Elec       q    Type
REMARK                         _______ _______ _______ _____ _____    ______ ____
ROOT
ATOM      1  N   UNL     1     -10.835  -2.473  17.959  0.00  0.00    +0.000 NA
ATOM      2  C   UNL     1     -11.065  -2.396  16.511  0.00  0.00    +0.000 C 
ATOM      3  C   UNL     1     -11.879  -3.658  16.200  0.00  0.00    +0.000 C 
ATOM      4  C   UNL     1     -11.424  -4.666  15.112  0.00  0.00    +0.000 C 
ATOM      5  C   UNL     1     -10.401  -5.198  16.142  0.00  0.00    +0.000 C 
ATOM      6  C   UNL     1     -11.379  -4.683  17.244  0.00  0.00    +0.000 C 
ATOM      7  C   UNL     1     -10.794  -3.878  18.392  0.00  0.00    +0.000 C 
ATOM      8  H   UNL     1     -10.115  -2.380  15.968  0.00  0.00    +0.000 HD
ATOM      9  H   UNL     1     -11.641  -1.502  16.255  0.00  0.00    +0.000 HD
ATOM     10  H   UNL     1     -12.960  -3.477  16.235  0.00  0.00    +0.000 HD
ATOM     11  H   UNL     1     -11.013  -4.229  14.199  0.00  0.00    +0.000 HD
ATOM     12  H   UNL     1     -12.210  -5.381  14.836  0.00  0.00    +0.000 HD
ATOM     13  H   UNL     1      -9.444  -4.665  16.083  0.00  0.00    +0.000 HD
ATOM     14  H   UNL     1     -12.135  -5.419  17.551  0.00  0.00    +0.000 HD
ATOM     15  H   UNL     1      -9.780  -4.217  18.610  0.00  0.00    +0.000 HD
ATOM     16  H   UNL     1     -11.408  -3.991  19.289  0.00  0.00    +0.000 HD
ENDROOT
BRANCH   5  17
ATOM     17  N   UNL     1     -10.201  -6.651  16.156  0.00  0.00    +0.000 N 
ATOM     18  C   UNL     1      -9.137  -7.217  16.831  0.00  0.00    +0.000 C 
ATOM     19  O   UNL     1      -8.304  -6.538  17.425  0.00  0.00    +0.000 OA
ATOM     20  H   UNL     1     -10.873  -7.271  15.725  0.00  0.00    +0.000 HD
BRANCH  18  21
ATOM     21  C   UNL     1      -9.086  -8.659  16.818  0.00  0.00    +0.000 A 
ATOM     22  C   UNL     1      -9.022  -9.593  17.837  0.00  0.00    +0.000 A 
ATOM     23  C   UNL     1      -8.908 -10.883  17.255  0.00  0.00    +0.000 A 
ATOM     24  C   UNL     1      -8.764 -12.178  17.786  0.00  0.00    +0.000 A 
ATOM     25  C   UNL     1      -8.651 -13.263  16.911  0.00  0.00    +0.000 A 
ATOM     26  C   UNL     1      -8.692 -13.060  15.537  0.00  0.00    +0.000 A 
ATOM     27  F   UNL     1      -8.575 -14.117  14.721  0.00  0.00    +0.000 F 
ATOM     28  C   UNL     1      -8.846 -11.790  14.981  0.00  0.00    +0.000 A 
ATOM     29  C   UNL     1      -8.945 -10.716  15.872  0.00  0.00    +0.000 A 
ATOM     30  N   UNL     1      -9.080  -9.366  15.634  0.00  0.00    +0.000 N 
ATOM     31  H   UNL     1      -9.025  -9.389  18.899  0.00  0.00    +0.000 HD
ATOM     32  H   UNL     1      -8.731 -12.334  18.860  0.00  0.00    +0.000 HD
ATOM     33  H   UNL     1      -8.525 -14.269  17.300  0.00  0.00    +0.000 HD
ATOM     34  H   UNL     1      -8.875 -11.659  13.906  0.00  0.00    +0.000 HD
ATOM     35  H   UNL     1      -9.129  -8.933  14.723  0.00  0.00    +0.000 HD
ENDBRANCH  18  21
ENDBRANCH   5  17
BRANCH   1  36
ATOM     36  S   UNL     1      -9.969  -1.299  18.785  0.00  0.00    +0.000 S 
ATOM     37  O   UNL     1      -9.134  -0.617  17.819  0.00  0.00    +0.000 OA
ATOM     38  O   UNL     1      -9.395  -1.916  19.963  0.00  0.00    +0.000 OA
BRANCH  36  42
ATOM     39  C   UNL     1     -13.069   1.776  20.158  0.00  0.00    +0.000 A 
ATOM     40  C   UNL     1     -12.572   0.826  21.062  0.00  0.00    +0.000 A 
ATOM     41  C   UNL     1     -11.634  -0.127  20.650  0.00  0.00    +0.000 A 
ATOM     42  C   UNL     1     -11.198  -0.131  19.325  0.00  0.00    +0.000 A 
ATOM     43  C   UNL     1     -11.649   0.845  18.428  0.00  0.00    +0.000 A 
ATOM     44  C   UNL     1     -12.591   1.785  18.842  0.00  0.00    +0.000 A 
ATOM     45  H   UNL     1     -12.910   0.824  22.096  0.00  0.00    +0.000 HD
ATOM     46  H   UNL     1     -11.243  -0.844  21.366  0.00  0.00    +0.000 HD
ATOM     47  H   UNL     1     -11.277   0.876  17.406  0.00  0.00    +0.000 HD
ATOM     48  H   UNL     1     -12.950   2.529  18.133  0.00  0.00    +0.000 HD
BRANCH  39  49
ATOM     49  C   UNL     1     -14.098   2.784  20.580  0.00  0.00    +0.000 C 
ATOM     50  H   UNL     1     -14.747   2.391  21.368  0.00  0.00    +0.000 HD
ATOM     51  H   UNL     1     -14.734   3.051  19.727  0.00  0.00    +0.000 HD
ATOM     52  H   UNL     1     -13.611   3.687  20.961  0.00  0.00    +0.000 HD
ENDBRANCH  39  49
ENDBRANCH  36  42
ENDBRANCH   1  36
TORSDOF 5
ENDMDL
MODEL 9
REMARK VINA RESULT:   -10.016      4.021     10.588
REMARK INTER + INTRA:         -13.335
REMARK INTER:                 -12.903
REMARK INTRA:                  -0.432
REMARK UNBOUND:                -0.684
REMARK  Name = 
REMARK  5 active torsions:
REMARK  status: ('A' for Active; 'I' for Inactive)
REMARK    1  A    between atoms: C_1  and  C_2
REMARK    2  A    between atoms: C_5  and  S_6
REMARK    3  A    between atoms: S_6  and  N_9
REMARK    4  A    between atoms: C_13  and  N_14
REMARK    5  A    between atoms: C_15  and  C_17
REMARK                            x       y       z     vdW  Elec       q    Type
REMARK                         _______ _______ _______ _____ _____    ______ ____
ROOT
ATOM      1  N   UNL     1      -9.842  -3.240  19.140  0.00  0.00    +0.000 NA
ATOM      2  C   UNL     1      -8.937  -3.541  20.255  0.00  0.00    +0.000 C 
ATOM      3  C   UNL     1      -7.812  -4.358  19.606  0.00  0.00    +0.000 C 
ATOM      4  C   UNL     1      -7.408  -5.753  20.150  0.00  0.00    +0.000 C 
ATOM      5  C   UNL     1      -8.656  -6.310  19.428  0.00  0.00    +0.000 C 
ATOM      6  C   UNL     1      -8.519  -5.102  18.450  0.00  0.00    +0.000 C 
ATOM      7  C   UNL     1      -9.771  -4.304  18.127  0.00  0.00    +0.000 C 
ATOM      8  H   UNL     1      -9.456  -4.111  21.032  0.00  0.00    +0.000 HD
ATOM      9  H   UNL     1      -8.535  -2.622  20.690  0.00  0.00    +0.000 HD
ATOM     10  H   UNL     1      -6.973  -3.729  19.286  0.00  0.00    +0.000 HD
ATOM     11  H   UNL     1      -7.389  -5.855  21.238  0.00  0.00    +0.000 HD
ATOM     12  H   UNL     1      -6.450  -6.109  19.748  0.00  0.00    +0.000 HD
ATOM     13  H   UNL     1      -9.546  -6.291  20.070  0.00  0.00    +0.000 HD
ATOM     14  H   UNL     1      -7.876  -5.300  17.582  0.00  0.00    +0.000 HD
ATOM     15  H   UNL     1     -10.646  -4.955  18.145  0.00  0.00    +0.000 HD
ATOM     16  H   UNL     1      -9.688  -3.847  17.137  0.00  0.00    +0.000 HD
ENDROOT
BRANCH   5  17
ATOM     17  N   UNL     1      -8.495  -7.618  18.783  0.00  0.00    +0.000 N 
ATOM     18  C   UNL     1      -9.561  -8.246  18.170  0.00  0.00    +0.000 C 
ATOM     19  O   UNL     1     -10.687  -7.757  18.154  0.00  0.00    +0.000 OA
ATOM     20  H   UNL     1      -7.587  -8.056  18.721  0.00  0.00    +0.000 HD
BRANCH  18  21
ATOM     21  C   UNL     1      -9.257  -9.499  17.521  0.00  0.00    +0.000 A 
ATOM     22  C   UNL     1      -9.016  -9.823  16.197  0.00  0.00    +0.000 A 
ATOM     23  C   UNL     1      -8.853 -11.230  16.104  0.00  0.00    +0.000 A 
ATOM     24  C   UNL     1      -8.636 -12.113  15.030  0.00  0.00    +0.000 A 
ATOM     25  C   UNL     1      -8.543 -13.485  15.285  0.00  0.00    +0.000 A 
ATOM     26  C   UNL     1      -8.654 -13.963  16.584  0.00  0.00    +0.000 A 
ATOM     27  F   UNL     1      -8.568 -15.283  16.800  0.00  0.00    +0.000 F 
ATOM     28  C   UNL     1      -8.857 -13.112  17.671  0.00  0.00    +0.000 A 
ATOM     29  C   UNL     1      -8.960 -11.745  17.395  0.00  0.00    +0.000 A 
ATOM     30  N   UNL     1      -9.176 -10.676  18.236  0.00  0.00    +0.000 N 
ATOM     31  H   UNL     1      -8.986  -9.138  15.362  0.00  0.00    +0.000 HD
ATOM     32  H   UNL     1      -8.552 -11.737  14.014  0.00  0.00    +0.000 HD
ATOM     33  H   UNL     1      -8.391 -14.184  14.468  0.00  0.00    +0.000 HD
ATOM     34  H   UNL     1      -8.939 -13.511  18.676  0.00  0.00    +0.000 HD
ATOM     35  H   UNL     1      -9.302 -10.733  19.237  0.00  0.00    +0.000 HD
ENDBRANCH  18  21
ENDBRANCH   5  17
BRANCH   1  36
ATOM     36  S   UNL     1     -11.250  -2.356  19.351  0.00  0.00    +0.000 S 
ATOM     37  O   UNL     1     -12.249  -3.255  19.892  0.00  0.00    +0.000 OA
ATOM     38  O   UNL     1     -11.497  -1.613  18.132  0.00  0.00    +0.000 OA
BRANCH  36  42
ATOM     39  C   UNL     1     -10.331   0.659  22.671  0.00  0.00    +0.000 A 
ATOM     40  C   UNL     1     -10.105   0.998  21.329  0.00  0.00    +0.000 A 
ATOM     41  C   UNL     1     -10.370   0.081  20.307  0.00  0.00    +0.000 A 
ATOM     42  C   UNL     1     -10.857  -1.186  20.632  0.00  0.00    +0.000 A 
ATOM     43  C   UNL     1     -11.136  -1.516  21.964  0.00  0.00    +0.000 A 
ATOM     44  C   UNL     1     -10.860  -0.600  22.979  0.00  0.00    +0.000 A 
ATOM     45  H   UNL     1      -9.723   1.984  21.070  0.00  0.00    +0.000 HD
ATOM     46  H   UNL     1     -10.208   0.365  19.271  0.00  0.00    +0.000 HD
ATOM     47  H   UNL     1     -11.560  -2.485  22.220  0.00  0.00    +0.000 HD
ATOM     48  H   UNL     1     -11.062  -0.873  24.013  0.00  0.00    +0.000 HD
BRANCH  39  49
ATOM     49  C   UNL     1     -10.023   1.624  23.778  0.00  0.00    +0.000 C 
ATOM     50  H   UNL     1     -10.060   2.660  23.430  0.00  0.00    +0.000 HD
ATOM     51  H   UNL     1      -9.014   1.439  24.167  0.00  0.00    +0.000 HD
ATOM     52  H   UNL     1     -10.747   1.513  24.592  0.00  0.00    +0.000 HD
ENDBRANCH  39  49
ENDBRANCH  36  42
ENDBRANCH   1  36
TORSDOF 5
ENDMDL
