MODEL 1
REMARK VINA RESULT:    -9.832      0.000      0.000
REMARK INTER + INTRA:         -14.371
REMARK INTER:                 -13.281
REMARK INTRA:                  -1.091
REMARK UNBOUND:                -1.091
REMARK  Name = 
REMARK  8 active torsions:
REMARK  status: ('A' for Active; 'I' for Inactive)
REMARK    1  A    between atoms: O_1  and  C_2
REMARK    2  A    between atoms: C_6  and  C_7
REMARK    3  A    between atoms: N_8  and  C_9
REMARK    4  A    between atoms: C_12  and  N_13
REMARK    5  A    between atoms: C_14  and  C_15
REMARK    6  A    between atoms: C_19  and  O_20
REMARK    7  A    between atoms: C_21  and  O_22
REMARK    8  A    between atoms: C_25  and  O_26
REMARK                            x       y       z     vdW  Elec       q    Type
REMARK                         _______ _______ _______ _____ _____    ______ ____
ROOT
ATOM      1  C   UNL     1      -9.232  -3.185  19.549  0.00  0.00    +0.000 A 
ATOM      2  C   UNL     1      -8.278  -3.951  20.225  0.00  0.00    +0.000 A 
ATOM      3  C   UNL     1      -8.116  -5.306  19.929  0.00  0.00    +0.000 A 
ATOM      4  C   UNL     1      -9.000  -5.934  19.047  0.00  0.00    +0.000 A 
ATOM      5  C   UNL     1     -10.087  -5.219  18.539  0.00  0.00    +0.000 A 
ATOM      6  C   UNL     1     -10.187  -3.844  18.780  0.00  0.00    +0.000 A 
ATOM      7  H   UNL     1      -7.583  -3.471  20.913  0.00  0.00    +0.000 HD
ATOM      8  H   UNL     1      -7.270  -5.809  20.388  0.00  0.00    +0.000 HD
ATOM      9  H   UNL     1     -10.849  -5.680  17.909  0.00  0.00    +0.000 HD
ATOM     10  H   UNL     1     -11.000  -3.270  18.339  0.00  0.00    +0.000 HD
ENDROOT
BRANCH   4  11
ATOM     11  N   UNL     1      -8.838  -7.255  18.613  0.00  0.00    +0.000 N 
ATOM     12  C   UNL     1      -9.463  -7.815  17.640  0.00  0.00    +0.000 C 
ATOM     13  H   UNL     1      -8.197  -7.843  19.167  0.00  0.00    +0.000 HD
ATOM     14  H   UNL     1     -10.203  -7.248  17.054  0.00  0.00    +0.000 HD
BRANCH  12  15
ATOM     15  C   UNL     1      -9.240  -9.225  17.275  0.00  0.00    +0.000 A 
ATOM     16  C   UNL     1      -9.289  -9.587  15.926  0.00  0.00    +0.000 A 
ATOM     17  C   UNL     1      -9.059 -10.916  15.552  0.00  0.00    +0.000 A 
ATOM     18  C   UNL     1      -8.785 -11.891  16.517  0.00  0.00    +0.000 A 
ATOM     19  C   UNL     1      -8.749 -11.526  17.856  0.00  0.00    +0.000 A 
ATOM     20  C   UNL     1      -8.978 -10.207  18.234  0.00  0.00    +0.000 A 
ATOM     21  H   UNL     1      -9.498  -8.855  15.148  0.00  0.00    +0.000 HD
ATOM     22  H   UNL     1      -9.090 -11.197  14.499  0.00  0.00    +0.000 HD
ATOM     23  H   UNL     1      -8.603 -12.916  16.204  0.00  0.00    +0.000 HD
BRANCH  19  24
ATOM     24  O   UNL     1      -8.490 -12.417  18.856  0.00  0.00    +0.000 OA
ATOM     25  H   UNL     1      -9.312 -12.571  19.362  0.00  0.00    +0.000 HD
ENDBRANCH  19  24
BRANCH  20  26
ATOM     26  O   UNL     1      -8.936  -9.895  19.576  0.00  0.00    +0.000 OA
ATOM     27  H   UNL     1      -9.735  -9.334  19.707  0.00  0.00    +0.000 HD
ENDBRANCH  20  26
ENDBRANCH  12  15
ENDBRANCH   4  11
BRANCH   1  29
ATOM     28  C   UNL     1      -9.456  -1.074  20.661  0.00  0.00    +0.000 C 
ATOM     29  N   UNL     1      -9.269  -1.788  19.583  0.00  0.00    +0.000 NA
ATOM     30  H   UNL     1      -9.471   0.014  20.482  0.00  0.00    +0.000 HD
BRANCH  28  35
ATOM     31  C   UNL     1     -11.037  -2.654  23.703  0.00  0.00    +0.000 A 
ATOM     32  C   UNL     1      -9.976  -2.662  24.605  0.00  0.00    +0.000 A 
ATOM     33  C   UNL     1      -8.796  -2.001  24.276  0.00  0.00    +0.000 A 
ATOM     34  C   UNL     1      -8.671  -1.367  23.037  0.00  0.00    +0.000 A 
ATOM     35  C   UNL     1      -9.684  -1.479  22.073  0.00  0.00    +0.000 A 
ATOM     36  C   UNL     1     -10.901  -2.073  22.436  0.00  0.00    +0.000 A 
ATOM     37  H   UNL     1     -10.059  -3.169  25.562  0.00  0.00    +0.000 HD
ATOM     38  H   UNL     1      -7.966  -1.993  24.980  0.00  0.00    +0.000 HD
ATOM     39  H   UNL     1      -7.751  -0.839  22.807  0.00  0.00    +0.000 HD
BRANCH  31  40
ATOM     40  O   UNL     1     -12.229  -3.227  24.050  0.00  0.00    +0.000 OA
ATOM     41  H   UNL     1     -12.771  -2.585  24.535  0.00  0.00    +0.000 HD
ENDBRANCH  31  40
BRANCH  36  42
ATOM     42  O   UNL     1     -11.968  -2.169  21.585  0.00  0.00    +0.000 OA
ATOM     43  H   UNL     1     -11.977  -1.430  20.958  0.00  0.00    +0.000 HD
ENDBRANCH  36  42
ENDBRANCH  28  35
ENDBRANCH   1  29
TORSDOF 8
ENDMDL
MODEL 2
REMARK VINA RESULT:    -9.732      1.347      1.619
REMARK INTER + INTRA:         -14.236
REMARK INTER:                 -13.205
REMARK INTRA:                  -1.032
REMARK UNBOUND:                -1.091
REMARK  Name = 
REMARK  8 active torsions:
REMARK  status: ('A' for Active; 'I' for Inactive)
REMARK    1  A    between atoms: O_1  and  C_2
REMARK    2  A    between atoms: C_6  and  C_7
REMARK    3  A    between atoms: N_8  and  C_9
REMARK    4  A    between atoms: C_12  and  N_13
REMARK    5  A    between atoms: C_14  and  C_15
REMARK    6  A    between atoms: C_19  and  O_20
REMARK    7  A    between atoms: C_21  and  O_22
REMARK    8  A    between atoms: C_25  and  O_26
REMARK                            x       y       z     vdW  Elec       q    Type
REMARK                         _______ _______ _______ _____ _____    ______ ____
ROOT
ATOM      1  C   UNL     1      -8.852  -3.685  19.602  0.00  0.00    +0.000 A 
ATOM      2  C   UNL     1      -7.942  -4.526  20.249  0.00  0.00    +0.000 A 
ATOM      3  C   UNL     1      -7.813  -5.863  19.863  0.00  0.00    +0.000 A 
ATOM      4  C   UNL     1      -8.690  -6.398  18.916  0.00  0.00    +0.000 A 
ATOM      5  C   UNL     1      -9.739  -5.615  18.429  0.00  0.00    +0.000 A 
ATOM      6  C   UNL     1      -9.803  -4.258  18.763  0.00  0.00    +0.000 A 
ATOM      7  H   UNL     1      -7.254  -4.118  20.987  0.00  0.00    +0.000 HD
ATOM      8  H   UNL     1      -6.998  -6.423  20.308  0.00  0.00    +0.000 HD
ATOM      9  H   UNL     1     -10.496  -6.006  17.748  0.00  0.00    +0.000 HD
ATOM     10  H   UNL     1     -10.585  -3.628  18.341  0.00  0.00    +0.000 HD
ENDROOT
BRANCH   4  11
ATOM     11  N   UNL     1      -8.557  -7.691  18.394  0.00  0.00    +0.000 N 
ATOM     12  C   UNL     1      -9.439  -8.328  17.711  0.00  0.00    +0.000 C 
ATOM     13  H   UNL     1      -7.688  -8.193  18.635  0.00  0.00    +0.000 HD
ATOM     14  H   UNL     1     -10.407  -7.860  17.479  0.00  0.00    +0.000 HD
BRANCH  12  15
ATOM     15  C   UNL     1      -9.212  -9.701  17.227  0.00  0.00    +0.000 A 
ATOM     16  C   UNL     1      -9.365  -9.968  15.864  0.00  0.00    +0.000 A 
ATOM     17  C   UNL     1      -9.134 -11.260  15.375  0.00  0.00    +0.000 A 
ATOM     18  C   UNL     1      -8.755 -12.291  16.241  0.00  0.00    +0.000 A 
ATOM     19  C   UNL     1      -8.615 -12.021  17.596  0.00  0.00    +0.000 A 
ATOM     20  C   UNL     1      -8.844 -10.740  18.087  0.00  0.00    +0.000 A 
ATOM     21  H   UNL     1      -9.658  -9.189  15.162  0.00  0.00    +0.000 HD
ATOM     22  H   UNL     1      -9.247 -11.465  14.311  0.00  0.00    +0.000 HD
ATOM     23  H   UNL     1      -8.574 -13.285  15.840  0.00  0.00    +0.000 HD
BRANCH  19  24
ATOM     24  O   UNL     1      -8.250 -12.972  18.503  0.00  0.00    +0.000 OA
ATOM     25  H   UNL     1      -8.931 -13.020  19.201  0.00  0.00    +0.000 HD
ENDBRANCH  19  24
BRANCH  20  26
ATOM     26  O   UNL     1      -8.697 -10.523  19.440  0.00  0.00    +0.000 OA
ATOM     27  H   UNL     1      -9.207 -11.260  19.848  0.00  0.00    +0.000 HD
ENDBRANCH  20  26
ENDBRANCH  12  15
ENDBRANCH   4  11
BRANCH   1  29
ATOM     28  C   UNL     1      -9.230  -1.644  20.799  0.00  0.00    +0.000 C 
ATOM     29  N   UNL     1      -8.847  -2.294  19.732  0.00  0.00    +0.000 NA
ATOM     30  H   UNL     1      -9.170  -0.547  20.703  0.00  0.00    +0.000 HD
BRANCH  28  35
ATOM     31  C   UNL     1      -9.362  -2.750  24.406  0.00  0.00    +0.000 A 
ATOM     32  C   UNL     1     -10.716  -2.611  24.698  0.00  0.00    +0.000 A 
ATOM     33  C   UNL     1     -11.609  -2.316  23.671  0.00  0.00    +0.000 A 
ATOM     34  C   UNL     1     -11.140  -2.129  22.368  0.00  0.00    +0.000 A 
ATOM     35  C   UNL     1      -9.763  -2.130  22.099  0.00  0.00    +0.000 A 
ATOM     36  C   UNL     1      -8.875  -2.507  23.116  0.00  0.00    +0.000 A 
ATOM     37  H   UNL     1     -11.086  -2.736  25.712  0.00  0.00    +0.000 HD
ATOM     38  H   UNL     1     -12.671  -2.217  23.890  0.00  0.00    +0.000 HD
ATOM     39  H   UNL     1     -11.853  -1.921  21.577  0.00  0.00    +0.000 HD
BRANCH  31  40
ATOM     40  O   UNL     1      -8.488  -3.122  25.390  0.00  0.00    +0.000 OA
ATOM     41  H   UNL     1      -7.799  -3.694  25.016  0.00  0.00    +0.000 HD
ENDBRANCH  31  40
BRANCH  36  42
ATOM     42  O   UNL     1      -7.522  -2.599  22.929  0.00  0.00    +0.000 OA
ATOM     43  H   UNL     1      -7.315  -2.815  22.007  0.00  0.00    +0.000 HD
ENDBRANCH  36  42
ENDBRANCH  28  35
ENDBRANCH   1  29
TORSDOF 8
ENDMDL
MODEL 3
REMARK VINA RESULT:    -9.623      1.580      1.869
REMARK INTER + INTRA:         -14.089
REMARK INTER:                 -13.020
REMARK INTRA:                  -1.070
REMARK UNBOUND:                -1.091
REMARK  Name = 
REMARK  8 active torsions:
REMARK  status: ('A' for Active; 'I' for Inactive)
REMARK    1  A    between atoms: O_1  and  C_2
REMARK    2  A    between atoms: C_6  and  C_7
REMARK    3  A    between atoms: N_8  and  C_9
REMARK    4  A    between atoms: C_12  and  N_13
REMARK    5  A    between atoms: C_14  and  C_15
REMARK    6  A    between atoms: C_19  and  O_20
REMARK    7  A    between atoms: C_21  and  O_22
REMARK    8  A    between atoms: C_25  and  O_26
REMARK                            x       y       z     vdW  Elec       q    Type
REMARK                         _______ _______ _______ _____ _____    ______ ____
ROOT
ATOM      1  C   UNL     1      -9.490  -2.361  19.780  0.00  0.00    +0.000 A 
ATOM      2  C   UNL     1      -8.506  -3.244  20.234  0.00  0.00    +0.000 A 
ATOM      3  C   UNL     1      -8.399  -4.527  19.690  0.00  0.00    +0.000 A 
ATOM      4  C   UNL     1      -9.361  -4.977  18.783  0.00  0.00    +0.000 A 
ATOM      5  C   UNL     1     -10.465  -4.173  18.494  0.00  0.00    +0.000 A 
ATOM      6  C   UNL     1     -10.514  -2.862  18.982  0.00  0.00    +0.000 A 
ATOM      7  H   UNL     1      -7.752  -2.902  20.940  0.00  0.00    +0.000 HD
ATOM      8  H   UNL     1      -7.534  -5.111  19.987  0.00  0.00    +0.000 HD
ATOM      9  H   UNL     1     -11.282  -4.506  17.853  0.00  0.00    +0.000 HD
ATOM     10  H   UNL     1     -11.344  -2.210  18.714  0.00  0.00    +0.000 HD
ENDROOT
BRANCH   4  11
ATOM     11  N   UNL     1      -9.263  -6.202  18.109  0.00  0.00    +0.000 N 
ATOM     12  C   UNL     1      -9.740  -7.326  18.507  0.00  0.00    +0.000 C 
ATOM     13  H   UNL     1      -8.705  -6.202  17.241  0.00  0.00    +0.000 HD
ATOM     14  H   UNL     1     -10.292  -7.391  19.457  0.00  0.00    +0.000 HD
BRANCH  12  15
ATOM     15  C   UNL     1      -9.561  -8.568  17.737  0.00  0.00    +0.000 A 
ATOM     16  C   UNL     1      -9.007  -9.682  18.374  0.00  0.00    +0.000 A 
ATOM     17  C   UNL     1      -8.846 -10.881  17.670  0.00  0.00    +0.000 A 
ATOM     18  C   UNL     1      -9.230 -10.976  16.328  0.00  0.00    +0.000 A 
ATOM     19  C   UNL     1      -9.770  -9.863  15.698  0.00  0.00    +0.000 A 
ATOM     20  C   UNL     1      -9.931  -8.668  16.392  0.00  0.00    +0.000 A 
ATOM     21  H   UNL     1      -8.698  -9.644  19.417  0.00  0.00    +0.000 HD
ATOM     22  H   UNL     1      -8.421 -11.751  18.170  0.00  0.00    +0.000 HD
ATOM     23  H   UNL     1      -9.102 -11.919  15.802  0.00  0.00    +0.000 HD
BRANCH  19  24
ATOM     24  O   UNL     1     -10.167  -9.876  14.393  0.00  0.00    +0.000 OA
ATOM     25  H   UNL     1     -11.020  -9.406  14.318  0.00  0.00    +0.000 HD
ENDBRANCH  19  24
BRANCH  20  26
ATOM     26  O   UNL     1     -10.466  -7.590  15.722  0.00  0.00    +0.000 OA
ATOM     27  H   UNL     1     -11.352  -7.914  15.435  0.00  0.00    +0.000 HD
ENDBRANCH  20  26
ENDBRANCH  12  15
ENDBRANCH   4  11
BRANCH   1  29
ATOM     28  C   UNL     1      -9.657  -0.478  21.253  0.00  0.00    +0.000 C 
ATOM     29  N   UNL     1      -9.491  -0.992  20.064  0.00  0.00    +0.000 NA
ATOM     30  H   UNL     1      -9.645   0.624  21.272  0.00  0.00    +0.000 HD
BRANCH  28  35
ATOM     31  C   UNL     1     -11.203  -2.634  23.938  0.00  0.00    +0.000 A 
ATOM     32  C   UNL     1     -10.167  -2.723  24.865  0.00  0.00    +0.000 A 
ATOM     33  C   UNL     1      -9.026  -1.944  24.691  0.00  0.00    +0.000 A 
ATOM     34  C   UNL     1      -8.914  -1.108  23.576  0.00  0.00    +0.000 A 
ATOM     35  C   UNL     1      -9.893  -1.124  22.572  0.00  0.00    +0.000 A 
ATOM     36  C   UNL     1     -11.075  -1.845  22.789  0.00  0.00    +0.000 A 
ATOM     37  H   UNL     1     -10.239  -3.385  25.723  0.00  0.00    +0.000 HD
ATOM     38  H   UNL     1      -8.217  -2.001  25.416  0.00  0.00    +0.000 HD
ATOM     39  H   UNL     1      -8.027  -0.493  23.468  0.00  0.00    +0.000 HD
BRANCH  31  40
ATOM     40  O   UNL     1     -12.362  -3.330  24.145  0.00  0.00    +0.000 OA
ATOM     41  H   UNL     1     -12.224  -3.997  24.836  0.00  0.00    +0.000 HD
ENDBRANCH  31  40
BRANCH  36  42
ATOM     42  O   UNL     1     -12.112  -1.866  21.896  0.00  0.00    +0.000 OA
ATOM     43  H   UNL     1     -12.605  -1.033  21.921  0.00  0.00    +0.000 HD
ENDBRANCH  36  42
ENDBRANCH  28  35
ENDBRANCH   1  29
TORSDOF 8
ENDMDL
MODEL 4
REMARK VINA RESULT:    -9.505      1.464      1.857
REMARK INTER + INTRA:         -13.930
REMARK INTER:                 -13.569
REMARK INTRA:                  -0.361
REMARK UNBOUND:                -1.091
REMARK  Name = 
REMARK  8 active torsions:
REMARK  status: ('A' for Active; 'I' for Inactive)
REMARK    1  A    between atoms: O_1  and  C_2
REMARK    2  A    between atoms: C_6  and  C_7
REMARK    3  A    between atoms: N_8  and  C_9
REMARK    4  A    between atoms: C_12  and  N_13
REMARK    5  A    between atoms: C_14  and  C_15
REMARK    6  A    between atoms: C_19  and  O_20
REMARK    7  A    between atoms: C_21  and  O_22
REMARK    8  A    between atoms: C_25  and  O_26
REMARK                            x       y       z     vdW  Elec       q    Type
REMARK                         _______ _______ _______ _____ _____    ______ ____
ROOT
ATOM      1  C   UNL     1      -9.243  -4.679  18.954  0.00  0.00    +0.000 A 
ATOM      2  C   UNL     1      -8.079  -5.334  19.369  0.00  0.00    +0.000 A 
ATOM      3  C   UNL     1      -7.919  -6.704  19.148  0.00  0.00    +0.000 A 
ATOM      4  C   UNL     1      -8.980  -7.451  18.629  0.00  0.00    +0.000 A 
ATOM      5  C   UNL     1     -10.216  -6.836  18.418  0.00  0.00    +0.000 A 
ATOM      6  C   UNL     1     -10.335  -5.450  18.565  0.00  0.00    +0.000 A 
ATOM      7  H   UNL     1      -7.247  -4.760  19.773  0.00  0.00    +0.000 HD
ATOM      8  H   UNL     1      -6.943  -7.123  19.369  0.00  0.00    +0.000 HD
ATOM      9  H   UNL     1     -11.097  -7.388  18.087  0.00  0.00    +0.000 HD
ATOM     10  H   UNL     1     -11.280  -4.956  18.347  0.00  0.00    +0.000 HD
ENDROOT
BRANCH   4  11
ATOM     11  N   UNL     1      -8.863  -8.801  18.274  0.00  0.00    +0.000 N 
ATOM     12  C   UNL     1      -9.017  -9.291  17.097  0.00  0.00    +0.000 C 
ATOM     13  H   UNL     1      -8.695  -9.463  19.047  0.00  0.00    +0.000 HD
ATOM     14  H   UNL     1      -9.258  -8.633  16.248  0.00  0.00    +0.000 HD
BRANCH  12  15
ATOM     15  C   UNL     1      -8.898 -10.735  16.829  0.00  0.00    +0.000 A 
ATOM     16  C   UNL     1      -8.929 -11.178  15.504  0.00  0.00    +0.000 A 
ATOM     17  C   UNL     1      -8.796 -12.543  15.221  0.00  0.00    +0.000 A 
ATOM     18  C   UNL     1      -8.638 -13.472  16.256  0.00  0.00    +0.000 A 
ATOM     19  C   UNL     1      -8.621 -13.025  17.570  0.00  0.00    +0.000 A 
ATOM     20  C   UNL     1      -8.753 -11.671  17.857  0.00  0.00    +0.000 A 
ATOM     21  H   UNL     1      -9.048 -10.483  14.675  0.00  0.00    +0.000 HD
ATOM     22  H   UNL     1      -8.812 -12.887  14.188  0.00  0.00    +0.000 HD
ATOM     23  H   UNL     1      -8.531 -14.526  16.014  0.00  0.00    +0.000 HD
BRANCH  19  24
ATOM     24  O   UNL     1      -8.473 -13.869  18.632  0.00  0.00    +0.000 OA
ATOM     25  H   UNL     1      -7.600 -13.709  19.042  0.00  0.00    +0.000 HD
ENDBRANCH  19  24
BRANCH  20  26
ATOM     26  O   UNL     1      -8.733 -11.278  19.177  0.00  0.00    +0.000 OA
ATOM     27  H   UNL     1      -8.884 -12.118  19.670  0.00  0.00    +0.000 HD
ENDBRANCH  20  26
ENDBRANCH  12  15
ENDBRANCH   4  11
BRANCH   1  29
ATOM     28  C   UNL     1      -9.048  -2.464  19.846  0.00  0.00    +0.000 C 
ATOM     29  N   UNL     1      -9.365  -3.288  18.884  0.00  0.00    +0.000 NA
ATOM     30  H   UNL     1      -9.233  -1.403  19.609  0.00  0.00    +0.000 HD
BRANCH  28  35
ATOM     31  C   UNL     1      -8.936  -3.177  23.552  0.00  0.00    +0.000 A 
ATOM     32  C   UNL     1      -7.629  -3.628  23.717  0.00  0.00    +0.000 A 
ATOM     33  C   UNL     1      -6.737  -3.542  22.651  0.00  0.00    +0.000 A 
ATOM     34  C   UNL     1      -7.165  -3.037  21.420  0.00  0.00    +0.000 A 
ATOM     35  C   UNL     1      -8.515  -2.715  21.212  0.00  0.00    +0.000 A 
ATOM     36  C   UNL     1      -9.390  -2.725  22.307  0.00  0.00    +0.000 A 
ATOM     37  H   UNL     1      -7.295  -4.039  24.665  0.00  0.00    +0.000 HD
ATOM     38  H   UNL     1      -5.712  -3.883  22.775  0.00  0.00    +0.000 HD
ATOM     39  H   UNL     1      -6.451  -2.958  20.607  0.00  0.00    +0.000 HD
BRANCH  31  40
ATOM     40  O   UNL     1      -9.796  -3.179  24.615  0.00  0.00    +0.000 OA
ATOM     41  H   UNL     1      -9.472  -3.790  25.296  0.00  0.00    +0.000 HD
ENDBRANCH  31  40
BRANCH  36  42
ATOM     42  O   UNL     1     -10.707  -2.364  22.213  0.00  0.00    +0.000 OA
ATOM     43  H   UNL     1     -10.886  -1.930  21.365  0.00  0.00    +0.000 HD
ENDBRANCH  36  42
ENDBRANCH  28  35
ENDBRANCH   1  29
TORSDOF 8
ENDMDL
MODEL 5
REMARK VINA RESULT:    -9.350      5.654      9.728
REMARK INTER + INTRA:         -13.721
REMARK INTER:                 -13.448
REMARK INTRA:                  -0.273
REMARK UNBOUND:                -1.091
REMARK  Name = 
REMARK  8 active torsions:
REMARK  status: ('A' for Active; 'I' for Inactive)
REMARK    1  A    between atoms: O_1  and  C_2
REMARK    2  A    between atoms: C_6  and  C_7
REMARK    3  A    between atoms: N_8  and  C_9
REMARK    4  A    between atoms: C_12  and  N_13
REMARK    5  A    between atoms: C_14  and  C_15
REMARK    6  A    between atoms: C_19  and  O_20
REMARK    7  A    between atoms: C_21  and  O_22
REMARK    8  A    between atoms: C_25  and  O_26
REMARK                            x       y       z     vdW  Elec       q    Type
REMARK                         _______ _______ _______ _____ _____    ______ ____
ROOT
ATOM      1  C   UNL     1      -9.241  -8.772  17.838  0.00  0.00    +0.000 A 
ATOM      2  C   UNL     1      -8.413  -7.752  17.361  0.00  0.00    +0.000 A 
ATOM      3  C   UNL     1      -8.931  -6.737  16.553  0.00  0.00    +0.000 A 
ATOM      4  C   UNL     1     -10.254  -6.811  16.109  0.00  0.00    +0.000 A 
ATOM      5  C   UNL     1     -11.017  -7.942  16.408  0.00  0.00    +0.000 A 
ATOM      6  C   UNL     1     -10.511  -8.908  17.284  0.00  0.00    +0.000 A 
ATOM      7  H   UNL     1      -7.381  -7.685  17.702  0.00  0.00    +0.000 HD
ATOM      8  H   UNL     1      -8.271  -5.905  16.331  0.00  0.00    +0.000 HD
ATOM      9  H   UNL     1     -12.028  -8.086  16.024  0.00  0.00    +0.000 HD
ATOM     10  H   UNL     1     -11.123  -9.764  17.566  0.00  0.00    +0.000 HD
ENDROOT
BRANCH   4  11
ATOM     11  N   UNL     1     -10.880  -5.782  15.394  0.00  0.00    +0.000 N 
ATOM     12  C   UNL     1     -10.431  -4.590  15.232  0.00  0.00    +0.000 C 
ATOM     13  H   UNL     1     -11.816  -5.995  15.014  0.00  0.00    +0.000 HD
ATOM     14  H   UNL     1      -9.466  -4.295  15.670  0.00  0.00    +0.000 HD
BRANCH  12  15
ATOM     15  C   UNL     1     -11.181  -3.568  14.482  0.00  0.00    +0.000 A 
ATOM     16  C   UNL     1     -11.691  -2.465  15.172  0.00  0.00    +0.000 A 
ATOM     17  C   UNL     1     -12.388  -1.468  14.479  0.00  0.00    +0.000 A 
ATOM     18  C   UNL     1     -12.584  -1.567  13.097  0.00  0.00    +0.000 A 
ATOM     19  C   UNL     1     -12.084  -2.671  12.419  0.00  0.00    +0.000 A 
ATOM     20  C   UNL     1     -11.392  -3.664  13.103  0.00  0.00    +0.000 A 
ATOM     21  H   UNL     1     -11.556  -2.355  16.247  0.00  0.00    +0.000 HD
ATOM     22  H   UNL     1     -12.779  -0.605  15.016  0.00  0.00    +0.000 HD
ATOM     23  H   UNL     1     -13.123  -0.779  12.577  0.00  0.00    +0.000 HD
BRANCH  19  24
ATOM     24  O   UNL     1     -12.236  -2.840  11.074  0.00  0.00    +0.000 OA
ATOM     25  H   UNL     1     -11.946  -3.741  10.835  0.00  0.00    +0.000 HD
ENDBRANCH  19  24
BRANCH  20  26
ATOM     26  O   UNL     1     -10.919  -4.743  12.387  0.00  0.00    +0.000 OA
ATOM     27  H   UNL     1     -10.779  -5.433  13.076  0.00  0.00    +0.000 HD
ENDBRANCH  20  26
ENDBRANCH  12  15
ENDBRANCH   4  11
BRANCH   1  29
ATOM     28  C   UNL     1      -8.556 -10.908  18.681  0.00  0.00    +0.000 C 
ATOM     29  N   UNL     1      -8.874  -9.654  18.858  0.00  0.00    +0.000 NA
ATOM     30  H   UNL     1      -8.313 -11.446  19.612  0.00  0.00    +0.000 HD
BRANCH  28  35
ATOM     31  C   UNL     1      -8.780 -13.895  16.382  0.00  0.00    +0.000 A 
ATOM     32  C   UNL     1      -8.861 -13.287  15.132  0.00  0.00    +0.000 A 
ATOM     33  C   UNL     1      -8.675 -11.911  15.028  0.00  0.00    +0.000 A 
ATOM     34  C   UNL     1      -8.444 -11.148  16.175  0.00  0.00    +0.000 A 
ATOM     35  C   UNL     1      -8.502 -11.737  17.447  0.00  0.00    +0.000 A 
ATOM     36  C   UNL     1      -8.607 -13.131  17.543  0.00  0.00    +0.000 A 
ATOM     37  H   UNL     1      -9.060 -13.871  14.238  0.00  0.00    +0.000 HD
ATOM     38  H   UNL     1      -8.727 -11.431  14.053  0.00  0.00    +0.000 HD
ATOM     39  H   UNL     1      -8.280 -10.080  16.072  0.00  0.00    +0.000 HD
BRANCH  31  40
ATOM     40  O   UNL     1      -8.876 -15.255  16.486  0.00  0.00    +0.000 OA
ATOM     41  H   UNL     1      -9.629 -15.570  15.960  0.00  0.00    +0.000 HD
ENDBRANCH  31  40
BRANCH  36  42
ATOM     42  O   UNL     1      -8.606 -13.799  18.738  0.00  0.00    +0.000 OA
ATOM     43  H   UNL     1      -7.749 -14.222  18.896  0.00  0.00    +0.000 HD
ENDBRANCH  36  42
ENDBRANCH  28  35
ENDBRANCH   1  29
TORSDOF 8
ENDMDL
MODEL 6
REMARK VINA RESULT:    -9.192      3.753      5.441
REMARK INTER + INTRA:         -13.506
REMARK INTER:                 -12.433
REMARK INTRA:                  -1.074
REMARK UNBOUND:                -1.091
REMARK  Name = 
REMARK  8 active torsions:
REMARK  status: ('A' for Active; 'I' for Inactive)
REMARK    1  A    between atoms: O_1  and  C_2
REMARK    2  A    between atoms: C_6  and  C_7
REMARK    3  A    between atoms: N_8  and  C_9
REMARK    4  A    between atoms: C_12  and  N_13
REMARK    5  A    between atoms: C_14  and  C_15
REMARK    6  A    between atoms: C_19  and  O_20
REMARK    7  A    between atoms: C_21  and  O_22
REMARK    8  A    between atoms: C_25  and  O_26
REMARK                            x       y       z     vdW  Elec       q    Type
REMARK                         _______ _______ _______ _____ _____    ______ ____
ROOT
ATOM      1  C   UNL     1     -11.080  -4.417  17.620  0.00  0.00    +0.000 A 
ATOM      2  C   UNL     1     -11.464  -5.169  16.506  0.00  0.00    +0.000 A 
ATOM      3  C   UNL     1     -10.957  -6.456  16.310  0.00  0.00    +0.000 A 
ATOM      4  C   UNL     1      -9.960  -6.945  17.158  0.00  0.00    +0.000 A 
ATOM      5  C   UNL     1      -9.421  -6.109  18.139  0.00  0.00    +0.000 A 
ATOM      6  C   UNL     1      -9.997  -4.856  18.375  0.00  0.00    +0.000 A 
ATOM      7  H   UNL     1     -12.241  -4.797  15.841  0.00  0.00    +0.000 HD
ATOM      8  H   UNL     1     -11.397  -7.036  15.506  0.00  0.00    +0.000 HD
ATOM      9  H   UNL     1      -8.590  -6.414  18.777  0.00  0.00    +0.000 HD
ATOM     10  H   UNL     1      -9.618  -4.224  19.177  0.00  0.00    +0.000 HD
ENDROOT
BRANCH   4  11
ATOM     11  N   UNL     1      -9.481  -8.260  17.098  0.00  0.00    +0.000 N 
ATOM     12  C   UNL     1      -9.866  -9.169  16.277  0.00  0.00    +0.000 C 
ATOM     13  H   UNL     1      -8.798  -8.530  17.823  0.00  0.00    +0.000 HD
ATOM     14  H   UNL     1     -10.637  -8.949  15.524  0.00  0.00    +0.000 HD
BRANCH  12  15
ATOM     15  C   UNL     1      -9.318 -10.536  16.312  0.00  0.00    +0.000 A 
ATOM     16  C   UNL     1      -9.109 -11.209  15.105  0.00  0.00    +0.000 A 
ATOM     17  C   UNL     1      -8.568 -12.500  15.109  0.00  0.00    +0.000 A 
ATOM     18  C   UNL     1      -8.239 -13.130  16.315  0.00  0.00    +0.000 A 
ATOM     19  C   UNL     1      -8.460 -12.460  17.511  0.00  0.00    +0.000 A 
ATOM     20  C   UNL     1      -8.997 -11.177  17.512  0.00  0.00    +0.000 A 
ATOM     21  H   UNL     1      -9.352 -10.749  14.149  0.00  0.00    +0.000 HD
ATOM     22  H   UNL     1      -8.398 -13.021  14.167  0.00  0.00    +0.000 HD
ATOM     23  H   UNL     1      -7.815 -14.130  16.295  0.00  0.00    +0.000 HD
BRANCH  19  24
ATOM     24  O   UNL     1      -8.167 -13.007  18.726  0.00  0.00    +0.000 OA
ATOM     25  H   UNL     1      -9.000 -13.164  19.210  0.00  0.00    +0.000 HD
ENDBRANCH  19  24
BRANCH  20  26
ATOM     26  O   UNL     1      -9.202 -10.556  18.725  0.00  0.00    +0.000 OA
ATOM     27  H   UNL     1      -9.768  -9.783  18.495  0.00  0.00    +0.000 HD
ENDBRANCH  20  26
ENDBRANCH  12  15
ENDBRANCH   4  11
BRANCH   1  29
ATOM     28  C   UNL     1     -11.852  -2.168  17.320  0.00  0.00    +0.000 C 
ATOM     29  N   UNL     1     -11.739  -3.256  18.034  0.00  0.00    +0.000 NA
ATOM     30  H   UNL     1     -12.392  -1.351  17.826  0.00  0.00    +0.000 HD
BRANCH  28  35
ATOM     31  C   UNL     1      -9.474  -1.541  14.456  0.00  0.00    +0.000 A 
ATOM     32  C   UNL     1     -10.316  -1.662  13.353  0.00  0.00    +0.000 A 
ATOM     33  C   UNL     1     -11.688  -1.782  13.553  0.00  0.00    +0.000 A 
ATOM     34  C   UNL     1     -12.206  -1.816  14.850  0.00  0.00    +0.000 A 
ATOM     35  C   UNL     1     -11.349  -1.836  15.960  0.00  0.00    +0.000 A 
ATOM     36  C   UNL     1      -9.977  -1.633  15.759  0.00  0.00    +0.000 A 
ATOM     37  H   UNL     1      -9.918  -1.656  12.342  0.00  0.00    +0.000 HD
ATOM     38  H   UNL     1     -12.354  -1.866  12.696  0.00  0.00    +0.000 HD
ATOM     39  H   UNL     1     -13.281  -1.889  14.985  0.00  0.00    +0.000 HD
BRANCH  31  40
ATOM     40  O   UNL     1      -8.134  -1.337  14.270  0.00  0.00    +0.000 OA
ATOM     41  H   UNL     1      -7.717  -1.116  15.117  0.00  0.00    +0.000 HD
ENDBRANCH  31  40
BRANCH  36  42
ATOM     42  O   UNL     1      -9.073  -1.572  16.786  0.00  0.00    +0.000 OA
ATOM     43  H   UNL     1      -9.382  -0.974  17.482  0.00  0.00    +0.000 HD
ENDBRANCH  36  42
ENDBRANCH  28  35
ENDBRANCH   1  29
TORSDOF 8
ENDMDL
MODEL 7
REMARK VINA RESULT:    -9.037      1.786      2.288
REMARK INTER + INTRA:         -13.297
REMARK INTER:                 -12.492
REMARK INTRA:                  -0.805
REMARK UNBOUND:                -1.091
REMARK  Name = 
REMARK  8 active torsions:
REMARK  status: ('A' for Active; 'I' for Inactive)
REMARK    1  A    between atoms: O_1  and  C_2
REMARK    2  A    between atoms: C_6  and  C_7
REMARK    3  A    between atoms: N_8  and  C_9
REMARK    4  A    between atoms: C_12  and  N_13
REMARK    5  A    between atoms: C_14  and  C_15
REMARK    6  A    between atoms: C_19  and  O_20
REMARK    7  A    between atoms: C_21  and  O_22
REMARK    8  A    between atoms: C_25  and  O_26
REMARK                            x       y       z     vdW  Elec       q    Type
REMARK                         _______ _______ _______ _____ _____    ______ ____
ROOT
ATOM      1  C   UNL     1     -10.683  -3.509  17.830  0.00  0.00    +0.000 A 
ATOM      2  C   UNL     1      -9.571  -3.953  18.551  0.00  0.00    +0.000 A 
ATOM      3  C   UNL     1      -9.122  -5.270  18.422  0.00  0.00    +0.000 A 
ATOM      4  C   UNL     1      -9.865  -6.185  17.672  0.00  0.00    +0.000 A 
ATOM      5  C   UNL     1     -11.092  -5.796  17.130  0.00  0.00    +0.000 A 
ATOM      6  C   UNL     1     -11.485  -4.455  17.198  0.00  0.00    +0.000 A 
ATOM      7  H   UNL     1      -8.985  -3.247  19.137  0.00  0.00    +0.000 HD
ATOM      8  H   UNL     1      -8.178  -5.513  18.900  0.00  0.00    +0.000 HD
ATOM      9  H   UNL     1     -11.746  -6.490  16.601  0.00  0.00    +0.000 HD
ATOM     10  H   UNL     1     -12.413  -4.133  16.728  0.00  0.00    +0.000 HD
ENDROOT
BRANCH   4  11
ATOM     11  N   UNL     1      -9.426  -7.488  17.402  0.00  0.00    +0.000 N 
ATOM     12  C   UNL     1     -10.163  -8.476  17.040  0.00  0.00    +0.000 C 
ATOM     13  H   UNL     1      -8.425  -7.676  17.567  0.00  0.00    +0.000 HD
ATOM     14  H   UNL     1     -11.247  -8.342  16.909  0.00  0.00    +0.000 HD
BRANCH  12  15
ATOM     15  C   UNL     1      -9.608  -9.820  16.804  0.00  0.00    +0.000 A 
ATOM     16  C   UNL     1      -9.626 -10.338  15.506  0.00  0.00    +0.000 A 
ATOM     17  C   UNL     1      -9.085 -11.603  15.251  0.00  0.00    +0.000 A 
ATOM     18  C   UNL     1      -8.528 -12.361  16.287  0.00  0.00    +0.000 A 
ATOM     19  C   UNL     1      -8.523 -11.845  17.576  0.00  0.00    +0.000 A 
ATOM     20  C   UNL     1      -9.060 -10.588  17.835  0.00  0.00    +0.000 A 
ATOM     21  H   UNL     1     -10.050  -9.775  14.676  0.00  0.00    +0.000 HD
ATOM     22  H   UNL     1      -9.093 -12.003  14.238  0.00  0.00    +0.000 HD
ATOM     23  H   UNL     1      -8.107 -13.339  16.066  0.00  0.00    +0.000 HD
BRANCH  19  24
ATOM     24  O   UNL     1      -8.000 -12.523  18.638  0.00  0.00    +0.000 OA
ATOM     25  H   UNL     1      -8.115 -11.983  19.444  0.00  0.00    +0.000 HD
ENDBRANCH  19  24
BRANCH  20  26
ATOM     26  O   UNL     1      -9.036 -10.122  19.132  0.00  0.00    +0.000 OA
ATOM     27  H   UNL     1      -9.987  -9.969  19.339  0.00  0.00    +0.000 HD
ENDBRANCH  20  26
ENDBRANCH  12  15
ENDBRANCH   4  11
BRANCH   1  29
ATOM     28  C   UNL     1     -11.075  -1.298  18.666  0.00  0.00    +0.000 C 
ATOM     29  N   UNL     1     -11.024  -2.161  17.687  0.00  0.00    +0.000 NA
ATOM     30  H   UNL     1     -11.383  -0.285  18.357  0.00  0.00    +0.000 HD
BRANCH  28  35
ATOM     31  C   UNL     1      -9.506  -0.896  22.077  0.00  0.00    +0.000 A 
ATOM     32  C   UNL     1     -10.528  -1.336  22.914  0.00  0.00    +0.000 A 
ATOM     33  C   UNL     1     -11.664  -1.918  22.359  0.00  0.00    +0.000 A 
ATOM     34  C   UNL     1     -11.787  -2.026  20.971  0.00  0.00    +0.000 A 
ATOM     35  C   UNL     1     -10.824  -1.458  20.124  0.00  0.00    +0.000 A 
ATOM     36  C   UNL     1      -9.645  -0.947  20.684  0.00  0.00    +0.000 A 
ATOM     37  H   UNL     1     -10.449  -1.237  23.993  0.00  0.00    +0.000 HD
ATOM     38  H   UNL     1     -12.463  -2.273  23.007  0.00  0.00    +0.000 HD
ATOM     39  H   UNL     1     -12.670  -2.502  20.557  0.00  0.00    +0.000 HD
BRANCH  31  40
ATOM     40  O   UNL     1      -8.351  -0.401  22.615  0.00  0.00    +0.000 OA
ATOM     41  H   UNL     1      -7.588  -0.746  22.124  0.00  0.00    +0.000 HD
ENDBRANCH  31  40
BRANCH  36  42
ATOM     42  O   UNL     1      -8.623  -0.432  19.933  0.00  0.00    +0.000 OA
ATOM     43  H   UNL     1      -7.812  -0.948  20.056  0.00  0.00    +0.000 HD
ENDBRANCH  36  42
ENDBRANCH  28  35
ENDBRANCH   1  29
TORSDOF 8
ENDMDL
MODEL 8
REMARK VINA RESULT:    -8.978      2.281      9.366
REMARK INTER + INTRA:         -13.218
REMARK INTER:                 -12.925
REMARK INTRA:                  -0.293
REMARK UNBOUND:                -1.091
REMARK  Name = 
REMARK  8 active torsions:
REMARK  status: ('A' for Active; 'I' for Inactive)
REMARK    1  A    between atoms: O_1  and  C_2
REMARK    2  A    between atoms: C_6  and  C_7
REMARK    3  A    between atoms: N_8  and  C_9
REMARK    4  A    between atoms: C_12  and  N_13
REMARK    5  A    between atoms: C_14  and  C_15
REMARK    6  A    between atoms: C_19  and  O_20
REMARK    7  A    between atoms: C_21  and  O_22
REMARK    8  A    between atoms: C_25  and  O_26
REMARK                            x       y       z     vdW  Elec       q    Type
REMARK                         _______ _______ _______ _____ _____    ______ ____
ROOT
ATOM      1  C   UNL     1      -9.322  -7.703  16.563  0.00  0.00    +0.000 A 
ATOM      2  C   UNL     1     -10.468  -7.421  17.313  0.00  0.00    +0.000 A 
ATOM      3  C   UNL     1     -10.445  -6.432  18.299  0.00  0.00    +0.000 A 
ATOM      4  C   UNL     1      -9.237  -5.812  18.631  0.00  0.00    +0.000 A 
ATOM      5  C   UNL     1      -8.052  -6.249  18.034  0.00  0.00    +0.000 A 
ATOM      6  C   UNL     1      -8.105  -7.180  16.991  0.00  0.00    +0.000 A 
ATOM      7  H   UNL     1     -11.413  -7.898  17.061  0.00  0.00    +0.000 HD
ATOM      8  H   UNL     1     -11.397  -6.167  18.747  0.00  0.00    +0.000 HD
ATOM      9  H   UNL     1      -7.075  -5.853  18.311  0.00  0.00    +0.000 HD
ATOM     10  H   UNL     1      -7.191  -7.483  16.482  0.00  0.00    +0.000 HD
ENDROOT
BRANCH   4  11
ATOM     11  N   UNL     1      -9.149  -4.737  19.524  0.00  0.00    +0.000 N 
ATOM     12  C   UNL     1      -8.095  -4.356  20.151  0.00  0.00    +0.000 C 
ATOM     13  H   UNL     1     -10.032  -4.245  19.735  0.00  0.00    +0.000 HD
ATOM     14  H   UNL     1      -7.140  -4.885  20.007  0.00  0.00    +0.000 HD
BRANCH  12  15
ATOM     15  C   UNL     1      -8.111  -3.224  21.093  0.00  0.00    +0.000 A 
ATOM     16  C   UNL     1      -7.371  -3.321  22.275  0.00  0.00    +0.000 A 
ATOM     17  C   UNL     1      -7.352  -2.251  23.177  0.00  0.00    +0.000 A 
ATOM     18  C   UNL     1      -8.073  -1.082  22.910  0.00  0.00    +0.000 A 
ATOM     19  C   UNL     1      -8.815  -0.997  21.739  0.00  0.00    +0.000 A 
ATOM     20  C   UNL     1      -8.838  -2.057  20.840  0.00  0.00    +0.000 A 
ATOM     21  H   UNL     1      -6.797  -4.215  22.514  0.00  0.00    +0.000 HD
ATOM     22  H   UNL     1      -6.768  -2.324  24.094  0.00  0.00    +0.000 HD
ATOM     23  H   UNL     1      -8.039  -0.260  23.621  0.00  0.00    +0.000 HD
BRANCH  19  24
ATOM     24  O   UNL     1      -9.544   0.108  21.409  0.00  0.00    +0.000 OA
ATOM     25  H   UNL     1      -8.940   0.871  21.327  0.00  0.00    +0.000 HD
ENDBRANCH  19  24
BRANCH  20  26
ATOM     26  O   UNL     1      -9.593  -1.927  19.695  0.00  0.00    +0.000 OA
ATOM     27  H   UNL     1      -9.336  -1.040  19.350  0.00  0.00    +0.000 HD
ENDBRANCH  20  26
ENDBRANCH  12  15
ENDBRANCH   4  11
BRANCH   1  29
ATOM     28  C   UNL     1      -9.223  -9.766  15.349  0.00  0.00    +0.000 C 
ATOM     29  N   UNL     1      -9.332  -8.466  15.392  0.00  0.00    +0.000 NA
ATOM     30  H   UNL     1      -9.234 -10.185  14.328  0.00  0.00    +0.000 HD
BRANCH  28  35
ATOM     31  C   UNL     1      -8.567 -13.047  17.097  0.00  0.00    +0.000 A 
ATOM     32  C   UNL     1      -8.281 -12.627  18.394  0.00  0.00    +0.000 A 
ATOM     33  C   UNL     1      -8.465 -11.290  18.735  0.00  0.00    +0.000 A 
ATOM     34  C   UNL     1      -8.901 -10.376  17.772  0.00  0.00    +0.000 A 
ATOM     35  C   UNL     1      -9.053 -10.769  16.434  0.00  0.00    +0.000 A 
ATOM     36  C   UNL     1      -8.947 -12.129  16.111  0.00  0.00    +0.000 A 
ATOM     37  H   UNL     1      -7.923 -13.328  19.143  0.00  0.00    +0.000 HD
ATOM     38  H   UNL     1      -8.254 -10.957  19.749  0.00  0.00    +0.000 HD
ATOM     39  H   UNL     1      -9.059  -9.343  18.061  0.00  0.00    +0.000 HD
BRANCH  31  40
ATOM     40  O   UNL     1      -8.470 -14.372  16.774  0.00  0.00    +0.000 OA
ATOM     41  H   UNL     1      -8.830 -14.912  17.496  0.00  0.00    +0.000 HD
ENDBRANCH  31  40
BRANCH  36  42
ATOM     42  O   UNL     1      -9.143 -12.613  14.846  0.00  0.00    +0.000 OA
ATOM     43  H   UNL     1      -9.811 -13.315  14.846  0.00  0.00    +0.000 HD
ENDBRANCH  36  42
ENDBRANCH  28  35
ENDBRANCH   1  29
TORSDOF 8
ENDMDL
MODEL 9
REMARK VINA RESULT:    -8.810      3.003      3.990
REMARK INTER + INTRA:         -12.990
REMARK INTER:                 -12.220
REMARK INTRA:                  -0.770
REMARK UNBOUND:                -1.091
REMARK  Name = 
REMARK  8 active torsions:
REMARK  status: ('A' for Active; 'I' for Inactive)
REMARK    1  A    between atoms: O_1  and  C_2
REMARK    2  A    between atoms: C_6  and  C_7
REMARK    3  A    between atoms: N_8  and  C_9
REMARK    4  A    between atoms: C_12  and  N_13
REMARK    5  A    between atoms: C_14  and  C_15
REMARK    6  A    between atoms: C_19  and  O_20
REMARK    7  A    between atoms: C_21  and  O_22
REMARK    8  A    between atoms: C_25  and  O_26
REMARK                            x       y       z     vdW  Elec       q    Type
REMARK                         _______ _______ _______ _____ _____    ______ ____
ROOT
ATOM      1  C   UNL     1     -10.765  -5.028  15.883  0.00  0.00    +0.000 A 
ATOM      2  C   UNL     1      -9.543  -5.534  15.430  0.00  0.00    +0.000 A 
ATOM      3  C   UNL     1      -9.190  -6.863  15.680  0.00  0.00    +0.000 A 
ATOM      4  C   UNL     1      -9.999  -7.653  16.501  0.00  0.00    +0.000 A 
ATOM      5  C   UNL     1     -11.107  -7.081  17.131  0.00  0.00    +0.000 A 
ATOM      6  C   UNL     1     -11.492  -5.776  16.804  0.00  0.00    +0.000 A 
ATOM      7  H   UNL     1      -8.907  -4.927  14.789  0.00  0.00    +0.000 HD
ATOM      8  H   UNL     1      -8.296  -7.231  15.186  0.00  0.00    +0.000 HD
ATOM      9  H   UNL     1     -11.727  -7.631  17.839  0.00  0.00    +0.000 HD
ATOM     10  H   UNL     1     -12.387  -5.344  17.249  0.00  0.00    +0.000 HD
ENDROOT
BRANCH   4  11
ATOM     11  N   UNL     1      -9.776  -9.020  16.707  0.00  0.00    +0.000 N 
ATOM     12  C   UNL     1      -8.987  -9.770  16.026  0.00  0.00    +0.000 C 
ATOM     13  H   UNL     1     -10.345  -9.470  17.441  0.00  0.00    +0.000 HD
ATOM     14  H   UNL     1      -8.402  -9.352  15.193  0.00  0.00    +0.000 HD
BRANCH  12  15
ATOM     15  C   UNL     1      -8.841 -11.209  16.307  0.00  0.00    +0.000 A 
ATOM     16  C   UNL     1      -8.626 -12.085  15.239  0.00  0.00    +0.000 A 
ATOM     17  C   UNL     1      -8.461 -13.454  15.481  0.00  0.00    +0.000 A 
ATOM     18  C   UNL     1      -8.515 -13.958  16.785  0.00  0.00    +0.000 A 
ATOM     19  C   UNL     1      -8.740 -13.084  17.840  0.00  0.00    +0.000 A 
ATOM     20  C   UNL     1      -8.905 -11.723  17.605  0.00  0.00    +0.000 A 
ATOM     21  H   UNL     1      -8.577 -11.727  14.212  0.00  0.00    +0.000 HD
ATOM     22  H   UNL     1      -8.286 -14.135  14.648  0.00  0.00    +0.000 HD
ATOM     23  H   UNL     1      -8.379 -15.024  16.951  0.00  0.00    +0.000 HD
BRANCH  19  24
ATOM     24  O   UNL     1      -8.807 -13.499  19.138  0.00  0.00    +0.000 OA
ATOM     25  H   UNL     1      -9.721 -13.787  19.329  0.00  0.00    +0.000 HD
ENDBRANCH  19  24
BRANCH  20  26
ATOM     26  O   UNL     1      -9.130 -10.897  18.685  0.00  0.00    +0.000 OA
ATOM     27  H   UNL     1      -9.052 -11.502  19.458  0.00  0.00    +0.000 HD
ENDBRANCH  20  26
ENDBRANCH  12  15
ENDBRANCH   4  11
BRANCH   1  29
ATOM     28  C   UNL     1     -11.411  -2.739  16.175  0.00  0.00    +0.000 C 
ATOM     29  N   UNL     1     -11.310  -3.818  15.446  0.00  0.00    +0.000 NA
ATOM     30  H   UNL     1     -11.888  -1.889  15.658  0.00  0.00    +0.000 HD
BRANCH  28  35
ATOM     31  C   UNL     1      -9.717  -1.204  19.179  0.00  0.00    +0.000 A 
ATOM     32  C   UNL     1     -10.560  -1.597  20.215  0.00  0.00    +0.000 A 
ATOM     33  C   UNL     1     -11.587  -2.501  19.954  0.00  0.00    +0.000 A 
ATOM     34  C   UNL     1     -11.785  -2.978  18.655  0.00  0.00    +0.000 A 
ATOM     35  C   UNL     1     -11.027  -2.475  17.587  0.00  0.00    +0.000 A 
ATOM     36  C   UNL     1      -9.943  -1.630  17.864  0.00  0.00    +0.000 A 
ATOM     37  H   UNL     1     -10.424  -1.215  21.222  0.00  0.00    +0.000 HD
ATOM     38  H   UNL     1     -12.243  -2.821  20.760  0.00  0.00    +0.000 HD
ATOM     39  H   UNL     1     -12.577  -3.698  18.475  0.00  0.00    +0.000 HD
BRANCH  31  40
ATOM     40  O   UNL     1      -8.654  -0.384  19.441  0.00  0.00    +0.000 OA
ATOM     41  H   UNL     1      -8.701  -0.071  20.358  0.00  0.00    +0.000 HD
ENDBRANCH  31  40
BRANCH  36  42
ATOM     42  O   UNL     1      -9.109  -1.143  16.895  0.00  0.00    +0.000 OA
ATOM     43  H   UNL     1      -8.270  -1.627  16.888  0.00  0.00    +0.000 HD
ENDBRANCH  36  42
ENDBRANCH  28  35
ENDBRANCH   1  29
TORSDOF 8
ENDMDL
