MODEL 1
REMARK VINA RESULT:    -9.085      0.000      0.000
REMARK INTER + INTRA:         -12.183
REMARK INTER:                 -11.476
REMARK INTRA:                  -0.707
REMARK UNBOUND:                -0.707
REMARK  Name = 
REMARK  5 active torsions:
REMARK  status: ('A' for Active; 'I' for Inactive)
REMARK    1  A    between atoms: N_1  and  C_2
REMARK    2  A    between atoms: N_4  and  C_5
REMARK    3  A    between atoms: C_5  and  C_6
REMARK    4  A    between atoms: C_6  and  C_7
REMARK    5  A    between atoms: C_15  and  N_16
REMARK                            x       y       z     vdW  Elec       q    Type
REMARK                         _______ _______ _______ _____ _____    ______ ____
ROOT
ATOM      1  C   UNL     1      -9.562  -7.687  18.638  0.00  0.00    +0.000 A 
ATOM      2  C   UNL     1      -9.818  -8.150  17.339  0.00  0.00    +0.000 A 
ATOM      3  N   UNL     1     -10.037  -9.517  17.130  0.00  0.00    +0.000 N 
ATOM      4  N   UNL     1      -9.875  -7.326  16.277  0.00  0.00    +0.000 NA
ATOM      5  C   UNL     1      -9.626  -6.041  16.484  0.00  0.00    +0.000 A 
ATOM      6  N   UNL     1      -9.272  -5.480  17.654  0.00  0.00    +0.000 NA
ATOM      7  C   UNL     1      -9.212  -6.321  18.716  0.00  0.00    +0.000 A 
ATOM      8  H   UNL     1     -10.918  -9.797  17.553  0.00  0.00    +0.000 HD
ATOM      9  H   UNL     1      -9.733  -5.380  15.631  0.00  0.00    +0.000 HD
ENDROOT
BRANCH   7  10
ATOM     10  N   UNL     1      -8.773  -5.756  19.953  0.00  0.00    +0.000 N 
ATOM     11  C   UNL     1      -7.417  -5.471  20.167  0.00  0.00    +0.000 A 
ATOM     12  C   UNL     1      -6.986  -4.496  21.070  0.00  0.00    +0.000 A 
ATOM     13  C   UNL     1      -5.659  -4.083  21.024  0.00  0.00    +0.000 A 
ATOM     14  C   UNL     1      -4.768  -4.690  20.143  0.00  0.00    +0.000 A 
ATOM     15  C   UNL     1      -5.214  -5.747  19.365  0.00  0.00    +0.000 A 
ATOM     16  N   UNL     1      -6.500  -6.097  19.415  0.00  0.00    +0.000 N 
ATOM     17  H   UNL     1      -9.367  -4.979  20.207  0.00  0.00    +0.000 HD
ATOM     18  H   UNL     1      -7.685  -4.005  21.744  0.00  0.00    +0.000 HD
ATOM     19  H   UNL     1      -5.323  -3.254  21.648  0.00  0.00    +0.000 HD
ATOM     20  H   UNL     1      -3.746  -4.335  20.053  0.00  0.00    +0.000 HD
ATOM     21  H   UNL     1      -4.592  -6.287  18.664  0.00  0.00    +0.000 HD
ATOM     22  H   UNL     1      -6.868  -6.848  18.821  0.00  0.00    +0.000 HD
ENDBRANCH   7  10
BRANCH   1  23
ATOM     23  N   UNL     1      -9.486  -8.554  19.738  0.00  0.00    +0.000 N 
ATOM     24  H   UNL     1      -9.217  -8.058  20.594  0.00  0.00    +0.000 HD
ATOM     25  H   UNL     1     -10.191  -9.240  19.924  0.00  0.00    +0.000 HD
ENDBRANCH   1  23
BRANCH   3  26
ATOM     26  C   UNL     1      -9.834 -10.031  15.773  0.00  0.00    +0.000 C 
ATOM     27  H   UNL     1      -9.917  -9.233  15.018  0.00  0.00    +0.000 HD
ATOM     28  H   UNL     1     -10.647 -10.734  15.548  0.00  0.00    +0.000 HD
BRANCH  26  29
ATOM     29  C   UNL     1      -8.488 -10.762  15.610  0.00  0.00    +0.000 C 
ATOM     30  H   UNL     1      -7.729 -10.327  16.272  0.00  0.00    +0.000 HD
ATOM     31  H   UNL     1      -8.124 -10.591  14.588  0.00  0.00    +0.000 HD
BRANCH  29  32
ATOM     32  C   UNL     1      -8.589 -12.247  15.837  0.00  0.00    +0.000 A 
ATOM     33  C   UNL     1      -8.680 -13.248  14.889  0.00  0.00    +0.000 A 
ATOM     34  C   UNL     1      -8.782 -14.545  15.477  0.00  0.00    +0.000 A 
ATOM     35  C   UNL     1      -8.755 -14.494  16.853  0.00  0.00    +0.000 A 
ATOM     36  S   UNL     1      -8.573 -12.895  17.428  0.00  0.00    +0.000 S 
ATOM     37  H   UNL     1      -8.682 -13.067  13.823  0.00  0.00    +0.000 HD
ATOM     38  H   UNL     1      -8.874 -15.468  14.916  0.00  0.00    +0.000 HD
ATOM     39  H   UNL     1      -8.821 -15.320  17.545  0.00  0.00    +0.000 HD
ENDBRANCH  29  32
ENDBRANCH  26  29
ENDBRANCH   3  26
TORSDOF 5
ENDMDL
MODEL 2
REMARK VINA RESULT:    -9.011      2.642      7.094
REMARK INTER + INTRA:         -12.089
REMARK INTER:                 -11.471
REMARK INTRA:                  -0.618
REMARK UNBOUND:                -0.707
REMARK  Name = 
REMARK  5 active torsions:
REMARK  status: ('A' for Active; 'I' for Inactive)
REMARK    1  A    between atoms: N_1  and  C_2
REMARK    2  A    between atoms: N_4  and  C_5
REMARK    3  A    between atoms: C_5  and  C_6
REMARK    4  A    between atoms: C_6  and  C_7
REMARK    5  A    between atoms: C_15  and  N_16
REMARK                            x       y       z     vdW  Elec       q    Type
REMARK                         _______ _______ _______ _____ _____    ______ ____
ROOT
ATOM      1  C   UNL     1      -8.990  -6.755  16.838  0.00  0.00    +0.000 A 
ATOM      2  C   UNL     1      -9.506  -5.889  17.814  0.00  0.00    +0.000 A 
ATOM      3  N   UNL     1      -8.762  -4.766  18.196  0.00  0.00    +0.000 N 
ATOM      4  N   UNL     1     -10.703  -6.087  18.395  0.00  0.00    +0.000 NA
ATOM      5  C   UNL     1     -11.378  -7.174  18.054  0.00  0.00    +0.000 A 
ATOM      6  N   UNL     1     -10.960  -8.135  17.210  0.00  0.00    +0.000 NA
ATOM      7  C   UNL     1      -9.750  -7.928  16.635  0.00  0.00    +0.000 A 
ATOM      8  H   UNL     1      -8.718  -4.101  17.429  0.00  0.00    +0.000 HD
ATOM      9  H   UNL     1     -12.367  -7.291  18.485  0.00  0.00    +0.000 HD
ENDROOT
BRANCH   7  10
ATOM     10  N   UNL     1      -9.260  -8.969  15.788  0.00  0.00    +0.000 N 
ATOM     11  C   UNL     1      -8.895 -10.212  16.322  0.00  0.00    +0.000 A 
ATOM     12  C   UNL     1      -8.907 -11.388  15.568  0.00  0.00    +0.000 A 
ATOM     13  C   UNL     1      -8.803 -12.607  16.230  0.00  0.00    +0.000 A 
ATOM     14  C   UNL     1      -8.614 -12.640  17.608  0.00  0.00    +0.000 A 
ATOM     15  C   UNL     1      -8.470 -11.443  18.292  0.00  0.00    +0.000 A 
ATOM     16  N   UNL     1      -8.604 -10.294  17.629  0.00  0.00    +0.000 N 
ATOM     17  H   UNL     1      -9.858  -9.065  14.980  0.00  0.00    +0.000 HD
ATOM     18  H   UNL     1      -9.077 -11.366  14.494  0.00  0.00    +0.000 HD
ATOM     19  H   UNL     1      -8.910 -13.541  15.676  0.00  0.00    +0.000 HD
ATOM     20  H   UNL     1      -8.593 -13.584  18.145  0.00  0.00    +0.000 HD
ATOM     21  H   UNL     1      -8.307 -11.370  19.358  0.00  0.00    +0.000 HD
ATOM     22  H   UNL     1      -8.544  -9.392  18.114  0.00  0.00    +0.000 HD
ENDBRANCH   7  10
BRANCH   1  23
ATOM     23  N   UNL     1      -7.733  -6.552  16.251  0.00  0.00    +0.000 N 
ATOM     24  H   UNL     1      -7.365  -5.617  16.459  0.00  0.00    +0.000 HD
ATOM     25  H   UNL     1      -7.010  -7.243  16.290  0.00  0.00    +0.000 HD
ENDBRANCH   1  23
BRANCH   3  26
ATOM     26  C   UNL     1      -9.071  -4.164  19.495  0.00  0.00    +0.000 C 
ATOM     27  H   UNL     1     -10.154  -4.171  19.701  0.00  0.00    +0.000 HD
ATOM     28  H   UNL     1      -8.786  -3.104  19.458  0.00  0.00    +0.000 HD
BRANCH  26  29
ATOM     29  C   UNL     1      -8.318  -4.838  20.658  0.00  0.00    +0.000 C 
ATOM     30  H   UNL     1      -8.747  -5.823  20.876  0.00  0.00    +0.000 HD
ATOM     31  H   UNL     1      -8.472  -4.238  21.564  0.00  0.00    +0.000 HD
BRANCH  29  32
ATOM     32  C   UNL     1      -6.836  -4.957  20.413  0.00  0.00    +0.000 A 
ATOM     33  C   UNL     1      -6.182  -5.827  19.564  0.00  0.00    +0.000 A 
ATOM     34  C   UNL     1      -4.763  -5.666  19.608  0.00  0.00    +0.000 A 
ATOM     35  C   UNL     1      -4.382  -4.672  20.481  0.00  0.00    +0.000 A 
ATOM     36  S   UNL     1      -5.728  -3.917  21.214  0.00  0.00    +0.000 S 
ATOM     37  H   UNL     1      -6.687  -6.554  18.943  0.00  0.00    +0.000 HD
ATOM     38  H   UNL     1      -4.061  -6.254  19.030  0.00  0.00    +0.000 HD
ATOM     39  H   UNL     1      -3.379  -4.347  20.712  0.00  0.00    +0.000 HD
ENDBRANCH  29  32
ENDBRANCH  26  29
ENDBRANCH   3  26
TORSDOF 5
ENDMDL
MODEL 3
REMARK VINA RESULT:    -8.795      2.034      2.928
REMARK INTER + INTRA:         -11.815
REMARK INTER:                 -11.156
REMARK INTRA:                  -0.659
REMARK UNBOUND:                -0.707
REMARK  Name = 
REMARK  5 active torsions:
REMARK  status: ('A' for Active; 'I' for Inactive)
REMARK    1  A    between atoms: N_1  and  C_2
REMARK    2  A    between atoms: N_4  and  C_5
REMARK    3  A    between atoms: C_5  and  C_6
REMARK    4  A    between atoms: C_6  and  C_7
REMARK    5  A    between atoms: C_15  and  N_16
REMARK                            x       y       z     vdW  Elec       q    Type
REMARK                         _______ _______ _______ _____ _____    ______ ____
ROOT
ATOM      1  C   UNL     1      -9.731  -5.331  18.577  0.00  0.00    +0.000 A 
ATOM      2  C   UNL     1      -9.181  -6.559  18.179  0.00  0.00    +0.000 A 
ATOM      3  N   UNL     1     -10.020  -7.548  17.652  0.00  0.00    +0.000 N 
ATOM      4  N   UNL     1      -7.865  -6.824  18.273  0.00  0.00    +0.000 NA
ATOM      5  C   UNL     1      -7.089  -5.895  18.812  0.00  0.00    +0.000 A 
ATOM      6  N   UNL     1      -7.496  -4.720  19.322  0.00  0.00    +0.000 NA
ATOM      7  C   UNL     1      -8.825  -4.465  19.227  0.00  0.00    +0.000 A 
ATOM      8  H   UNL     1     -10.375  -7.254  16.746  0.00  0.00    +0.000 HD
ATOM      9  H   UNL     1      -6.023  -6.098  18.827  0.00  0.00    +0.000 HD
ENDROOT
BRANCH   7  10
ATOM     10  N   UNL     1      -9.286  -3.251  19.824  0.00  0.00    +0.000 N 
ATOM     11  C   UNL     1      -8.881  -2.892  21.117  0.00  0.00    +0.000 A 
ATOM     12  C   UNL     1      -8.850  -1.566  21.555  0.00  0.00    +0.000 A 
ATOM     13  C   UNL     1      -8.184  -1.269  22.738  0.00  0.00    +0.000 A 
ATOM     14  C   UNL     1      -7.626  -2.290  23.503  0.00  0.00    +0.000 A 
ATOM     15  C   UNL     1      -7.805  -3.603  23.094  0.00  0.00    +0.000 A 
ATOM     16  N   UNL     1      -8.425  -3.848  21.939  0.00  0.00    +0.000 N 
ATOM     17  H   UNL     1      -9.186  -2.487  19.170  0.00  0.00    +0.000 HD
ATOM     18  H   UNL     1      -9.266  -0.763  20.949  0.00  0.00    +0.000 HD
ATOM     19  H   UNL     1      -8.059  -0.231  23.050  0.00  0.00    +0.000 HD
ATOM     20  H   UNL     1      -7.050  -2.067  24.396  0.00  0.00    +0.000 HD
ATOM     21  H   UNL     1      -7.421  -4.461  23.629  0.00  0.00    +0.000 HD
ATOM     22  H   UNL     1      -8.535  -4.806  21.591  0.00  0.00    +0.000 HD
ENDBRANCH   7  10
BRANCH   1  23
ATOM     23  N   UNL     1     -11.106  -5.068  18.493  0.00  0.00    +0.000 N 
ATOM     24  H   UNL     1     -11.633  -5.577  19.211  0.00  0.00    +0.000 HD
ATOM     25  H   UNL     1     -11.464  -4.142  18.371  0.00  0.00    +0.000 HD
ENDBRANCH   1  23
BRANCH   3  26
ATOM     26  C   UNL     1      -9.538  -8.930  17.689  0.00  0.00    +0.000 C 
ATOM     27  H   UNL     1     -10.130  -9.551  18.380  0.00  0.00    +0.000 HD
ATOM     28  H   UNL     1      -8.518  -8.927  18.096  0.00  0.00    +0.000 HD
BRANCH  26  29
ATOM     29  C   UNL     1      -9.511  -9.587  16.295  0.00  0.00    +0.000 C 
ATOM     30  H   UNL     1      -8.890  -9.004  15.605  0.00  0.00    +0.000 HD
ATOM     31  H   UNL     1     -10.527  -9.558  15.880  0.00  0.00    +0.000 HD
BRANCH  29  32
ATOM     32  C   UNL     1      -9.051 -11.021  16.326  0.00  0.00    +0.000 A 
ATOM     33  C   UNL     1      -8.762 -11.844  15.255  0.00  0.00    +0.000 A 
ATOM     34  C   UNL     1      -8.374 -13.155  15.668  0.00  0.00    +0.000 A 
ATOM     35  C   UNL     1      -8.369 -13.287  17.039  0.00  0.00    +0.000 A 
ATOM     36  S   UNL     1      -8.797 -11.829  17.820  0.00  0.00    +0.000 S 
ATOM     37  H   UNL     1      -8.831 -11.532  14.222  0.00  0.00    +0.000 HD
ATOM     38  H   UNL     1      -8.115 -13.960  14.990  0.00  0.00    +0.000 HD
ATOM     39  H   UNL     1      -8.123 -14.166  17.615  0.00  0.00    +0.000 HD
ENDBRANCH  29  32
ENDBRANCH  26  29
ENDBRANCH   3  26
TORSDOF 5
ENDMDL
MODEL 4
REMARK VINA RESULT:    -8.790      2.549      7.605
REMARK INTER + INTRA:         -11.810
REMARK INTER:                 -11.294
REMARK INTRA:                  -0.516
REMARK UNBOUND:                -0.707
REMARK  Name = 
REMARK  5 active torsions:
REMARK  status: ('A' for Active; 'I' for Inactive)
REMARK    1  A    between atoms: N_1  and  C_2
REMARK    2  A    between atoms: N_4  and  C_5
REMARK    3  A    between atoms: C_5  and  C_6
REMARK    4  A    between atoms: C_6  and  C_7
REMARK    5  A    between atoms: C_15  and  N_16
REMARK                            x       y       z     vdW  Elec       q    Type
REMARK                         _______ _______ _______ _____ _____    ______ ____
ROOT
ATOM      1  C   UNL     1      -9.839  -9.120  16.709  0.00  0.00    +0.000 A 
ATOM      2  C   UNL     1     -10.063  -8.267  17.800  0.00  0.00    +0.000 A 
ATOM      3  N   UNL     1     -10.822  -7.105  17.616  0.00  0.00    +0.000 N 
ATOM      4  N   UNL     1      -9.585  -8.528  19.030  0.00  0.00    +0.000 NA
ATOM      5  C   UNL     1      -8.835  -9.610  19.180  0.00  0.00    +0.000 A 
ATOM      6  N   UNL     1      -8.461 -10.457  18.205  0.00  0.00    +0.000 NA
ATOM      7  C   UNL     1      -8.943 -10.181  16.968  0.00  0.00    +0.000 A 
ATOM      8  H   UNL     1     -11.791  -7.349  17.429  0.00  0.00    +0.000 HD
ATOM      9  H   UNL     1      -8.505  -9.840  20.188  0.00  0.00    +0.000 HD
ENDROOT
BRANCH   7  10
ATOM     10  N   UNL     1      -8.502 -11.031  15.907  0.00  0.00    +0.000 N 
ATOM     11  C   UNL     1      -8.528 -12.425  16.051  0.00  0.00    +0.000 A 
ATOM     12  C   UNL     1      -8.615 -13.293  14.960  0.00  0.00    +0.000 A 
ATOM     13  C   UNL     1      -8.912 -14.631  15.193  0.00  0.00    +0.000 A 
ATOM     14  C   UNL     1      -9.044 -15.101  16.497  0.00  0.00    +0.000 A 
ATOM     15  C   UNL     1      -8.812 -14.228  17.549  0.00  0.00    +0.000 A 
ATOM     16  N   UNL     1      -8.557 -12.946  17.287  0.00  0.00    +0.000 N 
ATOM     17  H   UNL     1      -8.914 -10.733  15.034  0.00  0.00    +0.000 HD
ATOM     18  H   UNL     1      -8.534 -12.924  13.940  0.00  0.00    +0.000 HD
ATOM     19  H   UNL     1      -9.084 -15.307  14.354  0.00  0.00    +0.000 HD
ATOM     20  H   UNL     1      -9.336 -16.129  16.691  0.00  0.00    +0.000 HD
ATOM     21  H   UNL     1      -8.877 -14.506  18.592  0.00  0.00    +0.000 HD
ATOM     22  H   UNL     1      -8.422 -12.268  18.044  0.00  0.00    +0.000 HD
ENDBRANCH   7  10
BRANCH   1  23
ATOM     23  N   UNL     1     -10.325  -8.832  15.425  0.00  0.00    +0.000 N 
ATOM     24  H   UNL     1     -10.311  -7.825  15.233  0.00  0.00    +0.000 HD
ATOM     25  H   UNL     1     -10.045  -9.358  14.620  0.00  0.00    +0.000 HD
ENDBRANCH   1  23
BRANCH   3  26
ATOM     26  C   UNL     1     -10.653  -6.029  18.596  0.00  0.00    +0.000 C 
ATOM     27  H   UNL     1     -10.397  -6.422  19.593  0.00  0.00    +0.000 HD
ATOM     28  H   UNL     1     -11.620  -5.523  18.719  0.00  0.00    +0.000 HD
BRANCH  26  29
ATOM     29  C   UNL     1      -9.602  -4.990  18.162  0.00  0.00    +0.000 C 
ATOM     30  H   UNL     1     -10.013  -3.975  18.226  0.00  0.00    +0.000 HD
ATOM     31  H   UNL     1      -9.373  -5.152  17.101  0.00  0.00    +0.000 HD
BRANCH  29  32
ATOM     32  C   UNL     1      -8.318  -5.084  18.945  0.00  0.00    +0.000 A 
ATOM     33  C   UNL     1      -7.227  -5.892  18.695  0.00  0.00    +0.000 A 
ATOM     34  C   UNL     1      -6.194  -5.726  19.667  0.00  0.00    +0.000 A 
ATOM     35  C   UNL     1      -6.526  -4.790  20.621  0.00  0.00    +0.000 A 
ATOM     36  S   UNL     1      -8.058  -4.094  20.324  0.00  0.00    +0.000 S 
ATOM     37  H   UNL     1      -7.167  -6.578  17.861  0.00  0.00    +0.000 HD
ATOM     38  H   UNL     1      -5.257  -6.270  19.665  0.00  0.00    +0.000 HD
ATOM     39  H   UNL     1      -5.937  -4.476  21.469  0.00  0.00    +0.000 HD
ENDBRANCH  29  32
ENDBRANCH  26  29
ENDBRANCH   3  26
TORSDOF 5
ENDMDL
MODEL 5
REMARK VINA RESULT:    -8.763      3.151      8.184
REMARK INTER + INTRA:         -11.775
REMARK INTER:                 -11.096
REMARK INTRA:                  -0.679
REMARK UNBOUND:                -0.707
REMARK  Name = 
REMARK  5 active torsions:
REMARK  status: ('A' for Active; 'I' for Inactive)
REMARK    1  A    between atoms: N_1  and  C_2
REMARK    2  A    between atoms: N_4  and  C_5
REMARK    3  A    between atoms: C_5  and  C_6
REMARK    4  A    between atoms: C_6  and  C_7
REMARK    5  A    between atoms: C_15  and  N_16
REMARK                            x       y       z     vdW  Elec       q    Type
REMARK                         _______ _______ _______ _____ _____    ______ ____
ROOT
ATOM      1  C   UNL     1      -8.973  -6.797  16.836  0.00  0.00    +0.000 A 
ATOM      2  C   UNL     1      -9.522  -5.907  17.772  0.00  0.00    +0.000 A 
ATOM      3  N   UNL     1      -8.778  -4.791  18.174  0.00  0.00    +0.000 N 
ATOM      4  N   UNL     1     -10.749  -6.078  18.296  0.00  0.00    +0.000 NA
ATOM      5  C   UNL     1     -11.424  -7.159  17.938  0.00  0.00    +0.000 A 
ATOM      6  N   UNL     1     -10.982  -8.139  17.130  0.00  0.00    +0.000 NA
ATOM      7  C   UNL     1      -9.741  -7.961  16.613  0.00  0.00    +0.000 A 
ATOM      8  H   UNL     1      -8.686  -4.139  17.400  0.00  0.00    +0.000 HD
ATOM      9  H   UNL     1     -12.435  -7.254  18.322  0.00  0.00    +0.000 HD
ENDROOT
BRANCH   7  10
ATOM     10  N   UNL     1      -9.228  -9.022  15.806  0.00  0.00    +0.000 N 
ATOM     11  C   UNL     1      -8.875 -10.251  16.382  0.00  0.00    +0.000 A 
ATOM     12  C   UNL     1      -8.866 -11.446  15.659  0.00  0.00    +0.000 A 
ATOM     13  C   UNL     1      -8.777 -12.647  16.355  0.00  0.00    +0.000 A 
ATOM     14  C   UNL     1      -8.624 -12.643  17.739  0.00  0.00    +0.000 A 
ATOM     15  C   UNL     1      -8.499 -11.428  18.394  0.00  0.00    +0.000 A 
ATOM     16  N   UNL     1      -8.618 -10.297  17.698  0.00  0.00    +0.000 N 
ATOM     17  H   UNL     1      -9.805  -9.141  14.986  0.00  0.00    +0.000 HD
ATOM     18  H   UNL     1      -9.007 -11.452  14.581  0.00  0.00    +0.000 HD
ATOM     19  H   UNL     1      -8.869 -13.595  15.823  0.00  0.00    +0.000 HD
ATOM     20  H   UNL     1      -8.615 -13.573  18.300  0.00  0.00    +0.000 HD
ATOM     21  H   UNL     1      -8.364 -11.327  19.462  0.00  0.00    +0.000 HD
ATOM     22  H   UNL     1      -8.572  -9.383  18.161  0.00  0.00    +0.000 HD
ENDBRANCH   7  10
BRANCH   1  23
ATOM     23  N   UNL     1      -7.686  -6.623  16.308  0.00  0.00    +0.000 N 
ATOM     24  H   UNL     1      -7.529  -5.656  16.004  0.00  0.00    +0.000 HD
ATOM     25  H   UNL     1      -6.872  -6.998  16.755  0.00  0.00    +0.000 HD
ENDBRANCH   1  23
BRANCH   3  26
ATOM     26  C   UNL     1      -9.141  -4.164  19.447  0.00  0.00    +0.000 C 
ATOM     27  H   UNL     1     -10.062  -4.598  19.868  0.00  0.00    +0.000 HD
ATOM     28  H   UNL     1      -9.375  -3.108  19.255  0.00  0.00    +0.000 HD
BRANCH  26  29
ATOM     29  C   UNL     1      -8.009  -4.238  20.490  0.00  0.00    +0.000 C 
ATOM     30  H   UNL     1      -7.039  -4.380  19.998  0.00  0.00    +0.000 HD
ATOM     31  H   UNL     1      -8.165  -5.132  21.106  0.00  0.00    +0.000 HD
BRANCH  29  32
ATOM     32  C   UNL     1      -7.961  -3.037  21.398  0.00  0.00    +0.000 A 
ATOM     33  C   UNL     1      -6.914  -2.612  22.191  0.00  0.00    +0.000 A 
ATOM     34  C   UNL     1      -7.239  -1.438  22.937  0.00  0.00    +0.000 A 
ATOM     35  C   UNL     1      -8.520  -1.000  22.682  0.00  0.00    +0.000 A 
ATOM     36  S   UNL     1      -9.309  -1.979  21.525  0.00  0.00    +0.000 S 
ATOM     37  H   UNL     1      -5.959  -3.116  22.246  0.00  0.00    +0.000 HD
ATOM     38  H   UNL     1      -6.566  -0.945  23.629  0.00  0.00    +0.000 HD
ATOM     39  H   UNL     1      -9.022  -0.146  23.111  0.00  0.00    +0.000 HD
ENDBRANCH  29  32
ENDBRANCH  26  29
ENDBRANCH   3  26
TORSDOF 5
ENDMDL
MODEL 6
REMARK VINA RESULT:    -8.651      3.265      8.484
REMARK INTER + INTRA:         -11.634
REMARK INTER:                 -11.012
REMARK INTRA:                  -0.622
REMARK UNBOUND:                -0.707
REMARK  Name = 
REMARK  5 active torsions:
REMARK  status: ('A' for Active; 'I' for Inactive)
REMARK    1  A    between atoms: N_1  and  C_2
REMARK    2  A    between atoms: N_4  and  C_5
REMARK    3  A    between atoms: C_5  and  C_6
REMARK    4  A    between atoms: C_6  and  C_7
REMARK    5  A    between atoms: C_15  and  N_16
REMARK                            x       y       z     vdW  Elec       q    Type
REMARK                         _______ _______ _______ _____ _____    ______ ____
ROOT
ATOM      1  C   UNL     1      -8.730  -7.212  19.162  0.00  0.00    +0.000 A 
ATOM      2  C   UNL     1      -8.588  -5.821  19.276  0.00  0.00    +0.000 A 
ATOM      3  N   UNL     1      -7.792  -5.295  20.301  0.00  0.00    +0.000 N 
ATOM      4  N   UNL     1      -9.181  -4.962  18.426  0.00  0.00    +0.000 NA
ATOM      5  C   UNL     1      -9.963  -5.472  17.486  0.00  0.00    +0.000 A 
ATOM      6  N   UNL     1     -10.264  -6.773  17.324  0.00  0.00    +0.000 NA
ATOM      7  C   UNL     1      -9.666  -7.628  18.190  0.00  0.00    +0.000 A 
ATOM      8  H   UNL     1      -6.815  -5.520  20.133  0.00  0.00    +0.000 HD
ATOM      9  H   UNL     1     -10.387  -4.774  16.772  0.00  0.00    +0.000 HD
ENDROOT
BRANCH   7  10
ATOM     10  N   UNL     1     -10.026  -9.006  18.077  0.00  0.00    +0.000 N 
ATOM     11  C   UNL     1      -9.671  -9.746  16.940  0.00  0.00    +0.000 A 
ATOM     12  C   UNL     1      -9.520 -11.134  16.962  0.00  0.00    +0.000 A 
ATOM     13  C   UNL     1      -8.904 -11.757  15.882  0.00  0.00    +0.000 A 
ATOM     14  C   UNL     1      -8.518 -11.010  14.772  0.00  0.00    +0.000 A 
ATOM     15  C   UNL     1      -8.816  -9.657  14.741  0.00  0.00    +0.000 A 
ATOM     16  N   UNL     1      -9.381  -9.089  15.807  0.00  0.00    +0.000 N 
ATOM     17  H   UNL     1      -9.797  -9.494  18.932  0.00  0.00    +0.000 HD
ATOM     18  H   UNL     1      -9.800 -11.717  17.837  0.00  0.00    +0.000 HD
ATOM     19  H   UNL     1      -8.685 -12.825  15.919  0.00  0.00    +0.000 HD
ATOM     20  H   UNL     1      -7.982 -11.473  13.949  0.00  0.00    +0.000 HD
ATOM     21  H   UNL     1      -8.568  -9.001  13.917  0.00  0.00    +0.000 HD
ATOM     22  H   UNL     1      -9.575  -8.082  15.830  0.00  0.00    +0.000 HD
ENDBRANCH   7  10
BRANCH   1  23
ATOM     23  N   UNL     1      -8.123  -8.099  20.062  0.00  0.00    +0.000 N 
ATOM     24  H   UNL     1      -8.327  -7.847  21.036  0.00  0.00    +0.000 HD
ATOM     25  H   UNL     1      -8.151  -9.091  19.932  0.00  0.00    +0.000 HD
ENDBRANCH   1  23
BRANCH   3  26
ATOM     26  C   UNL     1      -8.027  -3.902  20.688  0.00  0.00    +0.000 C 
ATOM     27  H   UNL     1      -9.061  -3.745  21.037  0.00  0.00    +0.000 HD
ATOM     28  H   UNL     1      -7.920  -3.274  19.794  0.00  0.00    +0.000 HD
BRANCH  26  29
ATOM     29  C   UNL     1      -7.038  -3.408  21.761  0.00  0.00    +0.000 C 
ATOM     30  H   UNL     1      -6.194  -2.883  21.296  0.00  0.00    +0.000 HD
ATOM     31  H   UNL     1      -6.605  -4.284  22.261  0.00  0.00    +0.000 HD
BRANCH  29  32
ATOM     32  C   UNL     1      -7.684  -2.534  22.805  0.00  0.00    +0.000 A 
ATOM     33  C   UNL     1      -7.663  -1.156  22.891  0.00  0.00    +0.000 A 
ATOM     34  C   UNL     1      -8.371  -0.673  24.033  0.00  0.00    +0.000 A 
ATOM     35  C   UNL     1      -8.917  -1.697  24.776  0.00  0.00    +0.000 A 
ATOM     36  S   UNL     1      -8.605  -3.226  24.079  0.00  0.00    +0.000 S 
ATOM     37  H   UNL     1      -7.161  -0.517  22.178  0.00  0.00    +0.000 HD
ATOM     38  H   UNL     1      -8.469   0.373  24.297  0.00  0.00    +0.000 HD
ATOM     39  H   UNL     1      -9.491  -1.617  25.686  0.00  0.00    +0.000 HD
ENDBRANCH  29  32
ENDBRANCH  26  29
ENDBRANCH   3  26
TORSDOF 5
ENDMDL
MODEL 7
REMARK VINA RESULT:    -8.630      2.066      3.059
REMARK INTER + INTRA:         -11.607
REMARK INTER:                 -11.114
REMARK INTRA:                  -0.494
REMARK UNBOUND:                -0.707
REMARK  Name = 
REMARK  5 active torsions:
REMARK  status: ('A' for Active; 'I' for Inactive)
REMARK    1  A    between atoms: N_1  and  C_2
REMARK    2  A    between atoms: N_4  and  C_5
REMARK    3  A    between atoms: C_5  and  C_6
REMARK    4  A    between atoms: C_6  and  C_7
REMARK    5  A    between atoms: C_15  and  N_16
REMARK                            x       y       z     vdW  Elec       q    Type
REMARK                         _______ _______ _______ _____ _____    ______ ____
ROOT
ATOM      1  C   UNL     1      -8.538  -6.078  19.287  0.00  0.00    +0.000 A 
ATOM      2  C   UNL     1      -9.341  -6.415  18.187  0.00  0.00    +0.000 A 
ATOM      3  N   UNL     1      -9.378  -7.745  17.748  0.00  0.00    +0.000 N 
ATOM      4  N   UNL     1     -10.092  -5.508  17.537  0.00  0.00    +0.000 NA
ATOM      5  C   UNL     1     -10.016  -4.248  17.937  0.00  0.00    +0.000 A 
ATOM      6  N   UNL     1      -9.217  -3.772  18.908  0.00  0.00    +0.000 NA
ATOM      7  C   UNL     1      -8.459  -4.693  19.553  0.00  0.00    +0.000 A 
ATOM      8  H   UNL     1      -9.841  -8.326  18.441  0.00  0.00    +0.000 HD
ATOM      9  H   UNL     1     -10.671  -3.538  17.443  0.00  0.00    +0.000 HD
ENDROOT
BRANCH   7  10
ATOM     10  N   UNL     1      -7.556  -4.197  20.542  0.00  0.00    +0.000 N 
ATOM     11  C   UNL     1      -8.029  -3.464  21.638  0.00  0.00    +0.000 A 
ATOM     12  C   UNL     1      -7.341  -3.395  22.852  0.00  0.00    +0.000 A 
ATOM     13  C   UNL     1      -8.000  -2.885  23.965  0.00  0.00    +0.000 A 
ATOM     14  C   UNL     1      -9.294  -2.385  23.844  0.00  0.00    +0.000 A 
ATOM     15  C   UNL     1      -9.881  -2.350  22.589  0.00  0.00    +0.000 A 
ATOM     16  N   UNL     1      -9.230  -2.874  21.550  0.00  0.00    +0.000 N 
ATOM     17  H   UNL     1      -6.918  -4.929  20.824  0.00  0.00    +0.000 HD
ATOM     18  H   UNL     1      -6.339  -3.804  22.955  0.00  0.00    +0.000 HD
ATOM     19  H   UNL     1      -7.520  -2.913  24.945  0.00  0.00    +0.000 HD
ATOM     20  H   UNL     1      -9.842  -2.042  24.717  0.00  0.00    +0.000 HD
ATOM     21  H   UNL     1     -10.875  -1.968  22.396  0.00  0.00    +0.000 HD
ATOM     22  H   UNL     1      -9.656  -2.899  20.617  0.00  0.00    +0.000 HD
ENDBRANCH   7  10
BRANCH   1  23
ATOM     23  N   UNL     1      -7.743  -7.025  19.948  0.00  0.00    +0.000 N 
ATOM     24  H   UNL     1      -8.069  -7.982  19.771  0.00  0.00    +0.000 HD
ATOM     25  H   UNL     1      -6.743  -6.977  19.944  0.00  0.00    +0.000 HD
ENDBRANCH   1  23
BRANCH   3  26
ATOM     26  C   UNL     1      -9.818  -7.987  16.372  0.00  0.00    +0.000 C 
ATOM     27  H   UNL     1      -8.972  -7.978  15.666  0.00  0.00    +0.000 HD
ATOM     28  H   UNL     1     -10.464  -7.154  16.067  0.00  0.00    +0.000 HD
BRANCH  26  29
ATOM     29  C   UNL     1     -10.604  -9.303  16.222  0.00  0.00    +0.000 C 
ATOM     30  H   UNL     1     -11.266  -9.261  15.349  0.00  0.00    +0.000 HD
ATOM     31  H   UNL     1     -11.265  -9.412  17.092  0.00  0.00    +0.000 HD
BRANCH  29  32
ATOM     32  C   UNL     1      -9.716 -10.518  16.146  0.00  0.00    +0.000 A 
ATOM     33  C   UNL     1      -9.192 -11.117  15.017  0.00  0.00    +0.000 A 
ATOM     34  C   UNL     1      -8.407 -12.269  15.330  0.00  0.00    +0.000 A 
ATOM     35  C   UNL     1      -8.349 -12.505  16.685  0.00  0.00    +0.000 A 
ATOM     36  S   UNL     1      -9.208 -11.324  17.574  0.00  0.00    +0.000 S 
ATOM     37  H   UNL     1      -9.365 -10.759  14.012  0.00  0.00    +0.000 HD
ATOM     38  H   UNL     1      -7.914 -12.893  14.594  0.00  0.00    +0.000 HD
ATOM     39  H   UNL     1      -7.834 -13.305  17.194  0.00  0.00    +0.000 HD
ENDBRANCH  29  32
ENDBRANCH  26  29
ENDBRANCH   3  26
TORSDOF 5
ENDMDL
MODEL 8
REMARK VINA RESULT:    -8.608      2.488      3.504
REMARK INTER + INTRA:         -11.580
REMARK INTER:                 -10.845
REMARK INTRA:                  -0.735
REMARK UNBOUND:                -0.707
REMARK  Name = 
REMARK  5 active torsions:
REMARK  status: ('A' for Active; 'I' for Inactive)
REMARK    1  A    between atoms: N_1  and  C_2
REMARK    2  A    between atoms: N_4  and  C_5
REMARK    3  A    between atoms: C_5  and  C_6
REMARK    4  A    between atoms: C_6  and  C_7
REMARK    5  A    between atoms: C_15  and  N_16
REMARK                            x       y       z     vdW  Elec       q    Type
REMARK                         _______ _______ _______ _____ _____    ______ ____
ROOT
ATOM      1  C   UNL     1     -10.318  -6.263  16.622  0.00  0.00    +0.000 A 
ATOM      2  C   UNL     1      -9.379  -7.230  16.236  0.00  0.00    +0.000 A 
ATOM      3  N   UNL     1      -9.430  -7.757  14.940  0.00  0.00    +0.000 N 
ATOM      4  N   UNL     1      -8.413  -7.669  17.064  0.00  0.00    +0.000 NA
ATOM      5  C   UNL     1      -8.401  -7.193  18.300  0.00  0.00    +0.000 A 
ATOM      6  N   UNL     1      -9.297  -6.340  18.830  0.00  0.00    +0.000 NA
ATOM      7  C   UNL     1     -10.269  -5.910  17.988  0.00  0.00    +0.000 A 
ATOM      8  H   UNL     1      -9.178  -7.041  14.264  0.00  0.00    +0.000 HD
ATOM      9  H   UNL     1      -7.583  -7.509  18.938  0.00  0.00    +0.000 HD
ENDROOT
BRANCH   7  10
ATOM     10  N   UNL     1     -11.267  -5.056  18.551  0.00  0.00    +0.000 N 
ATOM     11  C   UNL     1     -10.920  -3.813  19.096  0.00  0.00    +0.000 A 
ATOM     12  C   UNL     1     -11.822  -2.750  19.183  0.00  0.00    +0.000 A 
ATOM     13  C   UNL     1     -11.334  -1.481  19.475  0.00  0.00    +0.000 A 
ATOM     14  C   UNL     1      -9.981  -1.298  19.747  0.00  0.00    +0.000 A 
ATOM     15  C   UNL     1      -9.151  -2.408  19.784  0.00  0.00    +0.000 A 
ATOM     16  N   UNL     1      -9.649  -3.605  19.471  0.00  0.00    +0.000 N 
ATOM     17  H   UNL     1     -12.055  -4.987  17.922  0.00  0.00    +0.000 HD
ATOM     18  H   UNL     1     -12.876  -2.886  18.949  0.00  0.00    +0.000 HD
ATOM     19  H   UNL     1     -12.003  -0.619  19.450  0.00  0.00    +0.000 HD
ATOM     20  H   UNL     1      -9.577  -0.304  19.915  0.00  0.00    +0.000 HD
ATOM     21  H   UNL     1      -8.092  -2.365  20.000  0.00  0.00    +0.000 HD
ATOM     22  H   UNL     1      -9.051  -4.437  19.449  0.00  0.00    +0.000 HD
ENDBRANCH   7  10
BRANCH   1  23
ATOM     23  N   UNL     1     -11.334  -5.824  15.760  0.00  0.00    +0.000 N 
ATOM     24  H   UNL     1     -12.127  -5.432  16.279  0.00  0.00    +0.000 HD
ATOM     25  H   UNL     1     -11.139  -5.288  14.937  0.00  0.00    +0.000 HD
ENDBRANCH   1  23
BRANCH   3  26
ATOM     26  C   UNL     1      -8.782  -9.051  14.713  0.00  0.00    +0.000 C 
ATOM     27  H   UNL     1      -7.902  -9.186  15.363  0.00  0.00    +0.000 HD
ATOM     28  H   UNL     1      -8.393  -9.063  13.686  0.00  0.00    +0.000 HD
BRANCH  26  29
ATOM     29  C   UNL     1      -9.746 -10.238  14.891  0.00  0.00    +0.000 C 
ATOM     30  H   UNL     1      -9.916 -10.746  13.934  0.00  0.00    +0.000 HD
ATOM     31  H   UNL     1     -10.725  -9.846  15.198  0.00  0.00    +0.000 HD
BRANCH  29  32
ATOM     32  C   UNL     1      -9.283 -11.226  15.930  0.00  0.00    +0.000 A 
ATOM     33  C   UNL     1      -9.374 -11.120  17.304  0.00  0.00    +0.000 A 
ATOM     34  C   UNL     1      -8.807 -12.247  17.974  0.00  0.00    +0.000 A 
ATOM     35  C   UNL     1      -8.312 -13.180  17.091  0.00  0.00    +0.000 A 
ATOM     36  S   UNL     1      -8.561 -12.714  15.466  0.00  0.00    +0.000 S 
ATOM     37  H   UNL     1      -9.817 -10.275  17.813  0.00  0.00    +0.000 HD
ATOM     38  H   UNL     1      -8.763 -12.362  19.050  0.00  0.00    +0.000 HD
ATOM     39  H   UNL     1      -7.828 -14.116  17.323  0.00  0.00    +0.000 HD
ENDBRANCH  29  32
ENDBRANCH  26  29
ENDBRANCH   3  26
TORSDOF 5
ENDMDL
MODEL 9
REMARK VINA RESULT:    -8.601      2.474      3.915
REMARK INTER + INTRA:         -11.571
REMARK INTER:                 -10.924
REMARK INTRA:                  -0.647
REMARK UNBOUND:                -0.707
REMARK  Name = 
REMARK  5 active torsions:
REMARK  status: ('A' for Active; 'I' for Inactive)
REMARK    1  A    between atoms: N_1  and  C_2
REMARK    2  A    between atoms: N_4  and  C_5
REMARK    3  A    between atoms: C_5  and  C_6
REMARK    4  A    between atoms: C_6  and  C_7
REMARK    5  A    between atoms: C_15  and  N_16
REMARK                            x       y       z     vdW  Elec       q    Type
REMARK                         _______ _______ _______ _____ _____    ______ ____
ROOT
ATOM      1  C   UNL     1      -9.011  -4.527  19.213  0.00  0.00    +0.000 A 
ATOM      2  C   UNL     1      -8.478  -5.769  18.838  0.00  0.00    +0.000 A 
ATOM      3  N   UNL     1      -9.198  -6.586  17.958  0.00  0.00    +0.000 N 
ATOM      4  N   UNL     1      -7.286  -6.208  19.283  0.00  0.00    +0.000 NA
ATOM      5  C   UNL     1      -6.635  -5.443  20.146  0.00  0.00    +0.000 A 
ATOM      6  N   UNL     1      -7.072  -4.281  20.663  0.00  0.00    +0.000 NA
ATOM      7  C   UNL     1      -8.277  -3.852  20.213  0.00  0.00    +0.000 A 
ATOM      8  H   UNL     1      -9.226  -6.162  17.035  0.00  0.00    +0.000 HD
ATOM      9  H   UNL     1      -5.649  -5.779  20.450  0.00  0.00    +0.000 HD
ENDROOT
BRANCH   7  10
ATOM     10  N   UNL     1      -8.788  -2.654  20.801  0.00  0.00    +0.000 N 
ATOM     11  C   UNL     1      -8.865  -2.519  22.194  0.00  0.00    +0.000 A 
ATOM     12  C   UNL     1      -8.852  -1.276  22.831  0.00  0.00    +0.000 A 
ATOM     13  C   UNL     1      -8.654  -1.233  24.207  0.00  0.00    +0.000 A 
ATOM     14  C   UNL     1      -8.548  -2.415  24.935  0.00  0.00    +0.000 A 
ATOM     15  C   UNL     1      -8.706  -3.623  24.275  0.00  0.00    +0.000 A 
ATOM     16  N   UNL     1      -8.866  -3.626  22.951  0.00  0.00    +0.000 N 
ATOM     17  H   UNL     1      -8.362  -1.848  20.366  0.00  0.00    +0.000 HD
ATOM     18  H   UNL     1      -8.913  -0.351  22.262  0.00  0.00    +0.000 HD
ATOM     19  H   UNL     1      -8.540  -0.274  24.713  0.00  0.00    +0.000 HD
ATOM     20  H   UNL     1      -8.332  -2.395  26.000  0.00  0.00    +0.000 HD
ATOM     21  H   UNL     1      -8.654  -4.589  24.758  0.00  0.00    +0.000 HD
ATOM     22  H   UNL     1      -8.944  -4.506  22.429  0.00  0.00    +0.000 HD
ENDBRANCH   7  10
BRANCH   1  23
ATOM     23  N   UNL     1     -10.262  -4.085  18.760  0.00  0.00    +0.000 N 
ATOM     24  H   UNL     1     -10.626  -3.322  19.340  0.00  0.00    +0.000 HD
ATOM     25  H   UNL     1     -10.450  -3.923  17.790  0.00  0.00    +0.000 HD
ENDBRANCH   1  23
BRANCH   3  26
ATOM     26  C   UNL     1      -8.878  -8.016  17.952  0.00  0.00    +0.000 C 
ATOM     27  H   UNL     1      -8.759  -8.411  18.974  0.00  0.00    +0.000 HD
ATOM     28  H   UNL     1      -7.900  -8.146  17.471  0.00  0.00    +0.000 HD
BRANCH  26  29
ATOM     29  C   UNL     1      -9.921  -8.855  17.189  0.00  0.00    +0.000 C 
ATOM     30  H   UNL     1     -10.311  -8.297  16.329  0.00  0.00    +0.000 HD
ATOM     31  H   UNL     1     -10.780  -9.023  17.851  0.00  0.00    +0.000 HD
BRANCH  29  32
ATOM     32  C   UNL     1      -9.393 -10.195  16.746  0.00  0.00    +0.000 A 
ATOM     33  C   UNL     1      -9.248 -10.667  15.457  0.00  0.00    +0.000 A 
ATOM     34  C   UNL     1      -8.732 -11.998  15.421  0.00  0.00    +0.000 A 
ATOM     35  C   UNL     1      -8.489 -12.494  16.683  0.00  0.00    +0.000 A 
ATOM     36  S   UNL     1      -8.850 -11.348  17.897  0.00  0.00    +0.000 S 
ATOM     37  H   UNL     1      -9.506 -10.096  14.575  0.00  0.00    +0.000 HD
ATOM     38  H   UNL     1      -8.552 -12.562  14.513  0.00  0.00    +0.000 HD
ATOM     39  H   UNL     1      -8.107 -13.469  16.945  0.00  0.00    +0.000 HD
ENDBRANCH  29  32
ENDBRANCH  26  29
ENDBRANCH   3  26
TORSDOF 5
ENDMDL
