MODEL 1
REMARK VINA RESULT:    -9.515      0.000      0.000
REMARK INTER + INTRA:         -14.673
REMARK INTER:                 -13.965
REMARK INTRA:                  -0.708
REMARK UNBOUND:                -0.708
REMARK  Name = 
REMARK  9 active torsions:
REMARK  status: ('A' for Active; 'I' for Inactive)
REMARK    1  A    between atoms: C_1  and  C_2
REMARK    2  A    between atoms: C_2  and  O_3
REMARK    3  A    between atoms: O_3  and  C_4
REMARK    4  A    between atoms: C_9  and  N_10
REMARK    5  A    between atoms: N_10  and  C_11
REMARK    6  A    between atoms: N_16  and  C_17
REMARK    7  A    between atoms: C_17  and  C_18
REMARK    8  A    between atoms: C_18  and  C_19
REMARK    9  A    between atoms: C_24  and  N_25
REMARK                            x       y       z     vdW  Elec       q    Type
REMARK                         _______ _______ _______ _____ _____    ______ ____
ROOT
ATOM      1  C   UNL     1      -8.522  -6.740  19.408  0.00  0.00    +0.000 A 
ATOM      2  N   UNL     1      -8.745  -7.706  20.308  0.00  0.00    +0.000 N 
ATOM      3  C   UNL     1      -9.063  -8.937  19.934  0.00  0.00    +0.000 A 
ATOM      4  N   UNL     1      -9.173  -9.333  18.664  0.00  0.00    +0.000 NA
ATOM      5  C   UNL     1      -8.863  -8.417  17.729  0.00  0.00    +0.000 A 
ATOM      6  N   UNL     1      -8.970  -8.763  16.380  0.00  0.00    +0.000 N 
ATOM      7  C   UNL     1      -8.519  -7.079  18.046  0.00  0.00    +0.000 A 
ATOM      8  H   UNL     1      -8.695  -7.454  21.289  0.00  0.00    +0.000 HD
ATOM      9  H   UNL     1      -9.286  -9.657  20.715  0.00  0.00    +0.000 HD
ATOM     10  H   UNL     1      -8.078  -8.701  15.900  0.00  0.00    +0.000 HD
ENDROOT
BRANCH   6  11
ATOM     11  C   UNL     1      -9.782  -9.934  16.029  0.00  0.00    +0.000 C 
ATOM     12  H   UNL     1     -10.752  -9.639  15.606  0.00  0.00    +0.000 HD
ATOM     13  H   UNL     1     -10.007 -10.481  16.954  0.00  0.00    +0.000 HD
BRANCH  11  14
ATOM     14  C   UNL     1      -9.042 -10.879  15.059  0.00  0.00    +0.000 C 
ATOM     15  H   UNL     1      -8.067 -10.459  14.781  0.00  0.00    +0.000 HD
ATOM     16  H   UNL     1      -9.618 -10.949  14.127  0.00  0.00    +0.000 HD
BRANCH  14  17
ATOM     17  C   UNL     1      -8.866 -12.262  15.628  0.00  0.00    +0.000 A 
ATOM     18  C   UNL     1      -8.846 -13.467  14.954  0.00  0.00    +0.000 A 
ATOM     19  C   UNL     1      -8.741 -14.580  15.837  0.00  0.00    +0.000 A 
ATOM     20  C   UNL     1      -8.665 -14.190  17.155  0.00  0.00    +0.000 A 
ATOM     21  S   UNL     1      -8.662 -12.490  17.319  0.00  0.00    +0.000 S 
ATOM     22  H   UNL     1      -8.926 -13.552  13.876  0.00  0.00    +0.000 HD
ATOM     23  H   UNL     1      -8.731 -15.617  15.522  0.00  0.00    +0.000 HD
ATOM     24  H   UNL     1      -8.591 -14.824  18.028  0.00  0.00    +0.000 HD
ENDBRANCH  14  17
ENDBRANCH  11  14
ENDBRANCH   6  11
BRANCH   7  25
ATOM     25  N   UNL     1      -8.092  -6.205  17.027  0.00  0.00    +0.000 N 
ATOM     26  H   UNL     1      -8.275  -5.226  17.268  0.00  0.00    +0.000 HD
ATOM     27  H   UNL     1      -7.193  -6.340  16.578  0.00  0.00    +0.000 HD
ENDBRANCH   7  25
BRANCH   1  28
ATOM     28  N   UNL     1      -8.391  -5.427  19.902  0.00  0.00    +0.000 N 
ATOM     29  H   UNL     1      -9.135  -5.177  20.554  0.00  0.00    +0.000 HD
BRANCH  28  35
ATOM     30  C   UNL     1      -7.130  -3.976  21.466  0.00  0.00    +0.000 A 
ATOM     31  C   UNL     1      -5.898  -3.422  21.844  0.00  0.00    +0.000 A 
ATOM     32  C   UNL     1      -4.709  -3.816  21.229  0.00  0.00    +0.000 A 
ATOM     33  C   UNL     1      -4.722  -4.804  20.256  0.00  0.00    +0.000 A 
ATOM     34  C   UNL     1      -5.937  -5.361  19.869  0.00  0.00    +0.000 A 
ATOM     35  C   UNL     1      -7.156  -4.905  20.404  0.00  0.00    +0.000 A 
ATOM     36  H   UNL     1      -5.818  -2.670  22.624  0.00  0.00    +0.000 HD
ATOM     37  H   UNL     1      -3.766  -3.368  21.537  0.00  0.00    +0.000 HD
ATOM     38  H   UNL     1      -3.789  -5.146  19.813  0.00  0.00    +0.000 HD
ATOM     39  H   UNL     1      -5.902  -6.171  19.141  0.00  0.00    +0.000 HD
BRANCH  30  40
ATOM     40  O   UNL     1      -8.331  -3.652  22.057  0.00  0.00    +0.000 OA
BRANCH  40  41
ATOM     41  C   UNL     1      -8.245  -2.844  23.242  0.00  0.00    +0.000 C 
ATOM     42  H   UNL     1      -7.278  -2.327  23.283  0.00  0.00    +0.000 HD
ATOM     43  H   UNL     1      -9.062  -2.113  23.246  0.00  0.00    +0.000 HD
BRANCH  41  44
ATOM     44  C   UNL     1      -8.369  -3.709  24.482  0.00  0.00    +0.000 C 
ATOM     45  H   UNL     1      -9.027  -3.229  25.214  0.00  0.00    +0.000 HD
ATOM     46  H   UNL     1      -7.390  -3.861  24.947  0.00  0.00    +0.000 HD
ATOM     47  H   UNL     1      -8.774  -4.694  24.235  0.00  0.00    +0.000 HD
ENDBRANCH  41  44
ENDBRANCH  40  41
ENDBRANCH  30  40
ENDBRANCH  28  35
ENDBRANCH   1  28
TORSDOF 9
ENDMDL
MODEL 2
REMARK VINA RESULT:    -9.173      1.101      1.876
REMARK INTER + INTRA:         -14.170
REMARK INTER:                 -13.509
REMARK INTRA:                  -0.661
REMARK UNBOUND:                -0.708
REMARK  Name = 
REMARK  9 active torsions:
REMARK  status: ('A' for Active; 'I' for Inactive)
REMARK    1  A    between atoms: C_1  and  C_2
REMARK    2  A    between atoms: C_2  and  O_3
REMARK    3  A    between atoms: O_3  and  C_4
REMARK    4  A    between atoms: C_9  and  N_10
REMARK    5  A    between atoms: N_10  and  C_11
REMARK    6  A    between atoms: N_16  and  C_17
REMARK    7  A    between atoms: C_17  and  C_18
REMARK    8  A    between atoms: C_18  and  C_19
REMARK    9  A    between atoms: C_24  and  N_25
REMARK                            x       y       z     vdW  Elec       q    Type
REMARK                         _______ _______ _______ _____ _____    ______ ____
ROOT
ATOM      1  C   UNL     1      -9.336  -6.069  18.503  0.00  0.00    +0.000 A 
ATOM      2  N   UNL     1      -9.529  -5.353  17.387  0.00  0.00    +0.000 N 
ATOM      3  C   UNL     1      -9.822  -5.939  16.235  0.00  0.00    +0.000 A 
ATOM      4  N   UNL     1      -9.969  -7.256  16.076  0.00  0.00    +0.000 NA
ATOM      5  C   UNL     1      -9.878  -8.002  17.192  0.00  0.00    +0.000 A 
ATOM      6  N   UNL     1     -10.010  -9.389  17.092  0.00  0.00    +0.000 N 
ATOM      7  C   UNL     1      -9.563  -7.454  18.461  0.00  0.00    +0.000 A 
ATOM      8  H   UNL     1      -9.410  -4.348  17.447  0.00  0.00    +0.000 HD
ATOM      9  H   UNL     1      -9.910  -5.306  15.358  0.00  0.00    +0.000 HD
ATOM     10  H   UNL     1     -10.800  -9.734  17.626  0.00  0.00    +0.000 HD
ENDROOT
BRANCH   6  11
ATOM     11  C   UNL     1      -9.835 -10.006  15.772  0.00  0.00    +0.000 C 
ATOM     12  H   UNL     1      -9.959  -9.271  14.965  0.00  0.00    +0.000 HD
ATOM     13  H   UNL     1     -10.634 -10.746  15.635  0.00  0.00    +0.000 HD
BRANCH  11  14
ATOM     14  C   UNL     1      -8.471 -10.715  15.644  0.00  0.00    +0.000 C 
ATOM     15  H   UNL     1      -7.734 -10.259  16.317  0.00  0.00    +0.000 HD
ATOM     16  H   UNL     1      -8.087 -10.562  14.627  0.00  0.00    +0.000 HD
BRANCH  14  17
ATOM     17  C   UNL     1      -8.567 -12.195  15.911  0.00  0.00    +0.000 A 
ATOM     18  C   UNL     1      -8.678 -13.222  14.995  0.00  0.00    +0.000 A 
ATOM     19  C   UNL     1      -8.829 -14.492  15.623  0.00  0.00    +0.000 A 
ATOM     20  C   UNL     1      -8.808 -14.398  16.996  0.00  0.00    +0.000 A 
ATOM     21  S   UNL     1      -8.550 -12.793  17.521  0.00  0.00    +0.000 S 
ATOM     22  H   UNL     1      -8.676 -13.071  13.922  0.00  0.00    +0.000 HD
ATOM     23  H   UNL     1      -8.955 -15.429  15.093  0.00  0.00    +0.000 HD
ATOM     24  H   UNL     1      -8.912 -15.199  17.715  0.00  0.00    +0.000 HD
ENDBRANCH  14  17
ENDBRANCH  11  14
ENDBRANCH   6  11
BRANCH   7  25
ATOM     25  N   UNL     1      -9.600  -8.272  19.606  0.00  0.00    +0.000 N 
ATOM     26  H   UNL     1      -9.808  -7.730  20.451  0.00  0.00    +0.000 HD
ATOM     27  H   UNL     1     -10.077  -9.166  19.583  0.00  0.00    +0.000 HD
ENDBRANCH   7  25
BRANCH   1  28
ATOM     28  N   UNL     1      -8.833  -5.378  19.623  0.00  0.00    +0.000 N 
ATOM     29  H   UNL     1      -9.299  -5.646  20.490  0.00  0.00    +0.000 HD
BRANCH  28  35
ATOM     30  C   UNL     1      -6.961  -4.382  20.903  0.00  0.00    +0.000 A 
ATOM     31  C   UNL     1      -5.576  -4.206  21.044  0.00  0.00    +0.000 A 
ATOM     32  C   UNL     1      -4.673  -4.902  20.239  0.00  0.00    +0.000 A 
ATOM     33  C   UNL     1      -5.135  -5.821  19.309  0.00  0.00    +0.000 A 
ATOM     34  C   UNL     1      -6.506  -6.003  19.156  0.00  0.00    +0.000 A 
ATOM     35  C   UNL     1      -7.434  -5.238  19.887  0.00  0.00    +0.000 A 
ATOM     36  H   UNL     1      -5.152  -3.527  21.779  0.00  0.00    +0.000 HD
ATOM     37  H   UNL     1      -3.603  -4.745  20.364  0.00  0.00    +0.000 HD
ATOM     38  H   UNL     1      -4.429  -6.400  18.717  0.00  0.00    +0.000 HD
ATOM     39  H   UNL     1      -6.829  -6.772  18.454  0.00  0.00    +0.000 HD
BRANCH  30  40
ATOM     40  O   UNL     1      -7.899  -3.748  21.689  0.00  0.00    +0.000 OA
BRANCH  40  41
ATOM     41  C   UNL     1      -7.411  -3.202  22.925  0.00  0.00    +0.000 C 
ATOM     42  H   UNL     1      -8.060  -3.500  23.758  0.00  0.00    +0.000 HD
ATOM     43  H   UNL     1      -6.388  -3.555  23.102  0.00  0.00    +0.000 HD
BRANCH  41  44
ATOM     44  C   UNL     1      -7.392  -1.686  22.861  0.00  0.00    +0.000 C 
ATOM     45  H   UNL     1      -8.413  -1.293  22.900  0.00  0.00    +0.000 HD
ATOM     46  H   UNL     1      -6.926  -1.344  21.932  0.00  0.00    +0.000 HD
ATOM     47  H   UNL     1      -6.819  -1.265  23.692  0.00  0.00    +0.000 HD
ENDBRANCH  41  44
ENDBRANCH  40  41
ENDBRANCH  30  40
ENDBRANCH  28  35
ENDBRANCH   1  28
TORSDOF 9
ENDMDL
MODEL 3
REMARK VINA RESULT:    -8.953      3.313      8.695
REMARK INTER + INTRA:         -13.848
REMARK INTER:                 -12.940
REMARK INTRA:                  -0.908
REMARK UNBOUND:                -0.708
REMARK  Name = 
REMARK  9 active torsions:
REMARK  status: ('A' for Active; 'I' for Inactive)
REMARK    1  A    between atoms: C_1  and  C_2
REMARK    2  A    between atoms: C_2  and  O_3
REMARK    3  A    between atoms: O_3  and  C_4
REMARK    4  A    between atoms: C_9  and  N_10
REMARK    5  A    between atoms: N_10  and  C_11
REMARK    6  A    between atoms: N_16  and  C_17
REMARK    7  A    between atoms: C_17  and  C_18
REMARK    8  A    between atoms: C_18  and  C_19
REMARK    9  A    between atoms: C_24  and  N_25
REMARK                            x       y       z     vdW  Elec       q    Type
REMARK                         _______ _______ _______ _____ _____    ______ ____
ROOT
ATOM      1  C   UNL     1     -10.130  -8.399  18.129  0.00  0.00    +0.000 A 
ATOM      2  N   UNL     1      -9.103  -8.679  18.943  0.00  0.00    +0.000 N 
ATOM      3  C   UNL     1      -8.443  -7.720  19.575  0.00  0.00    +0.000 A 
ATOM      4  N   UNL     1      -8.734  -6.420  19.483  0.00  0.00    +0.000 NA
ATOM      5  C   UNL     1      -9.818  -6.105  18.752  0.00  0.00    +0.000 A 
ATOM      6  N   UNL     1     -10.169  -4.761  18.606  0.00  0.00    +0.000 N 
ATOM      7  C   UNL     1     -10.574  -7.070  18.041  0.00  0.00    +0.000 A 
ATOM      8  H   UNL     1      -8.827  -9.651  19.033  0.00  0.00    +0.000 HD
ATOM      9  H   UNL     1      -7.586  -8.011  20.174  0.00  0.00    +0.000 HD
ATOM     10  H   UNL     1     -11.089  -4.566  18.985  0.00  0.00    +0.000 HD
ENDROOT
BRANCH   6  11
ATOM     11  C   UNL     1      -9.150  -3.745  18.896  0.00  0.00    +0.000 C 
ATOM     12  H   UNL     1      -8.828  -3.226  17.983  0.00  0.00    +0.000 HD
ATOM     13  H   UNL     1      -8.261  -4.257  19.286  0.00  0.00    +0.000 HD
BRANCH  11  14
ATOM     14  C   UNL     1      -9.638  -2.724  19.945  0.00  0.00    +0.000 C 
ATOM     15  H   UNL     1     -10.583  -3.054  20.395  0.00  0.00    +0.000 HD
ATOM     16  H   UNL     1      -9.859  -1.775  19.439  0.00  0.00    +0.000 HD
BRANCH  14  17
ATOM     17  C   UNL     1      -8.614  -2.475  21.022  0.00  0.00    +0.000 A 
ATOM     18  C   UNL     1      -8.503  -1.382  21.858  0.00  0.00    +0.000 A 
ATOM     19  C   UNL     1      -7.355  -1.457  22.698  0.00  0.00    +0.000 A 
ATOM     20  C   UNL     1      -6.637  -2.614  22.492  0.00  0.00    +0.000 A 
ATOM     21  S   UNL     1      -7.377  -3.625  21.332  0.00  0.00    +0.000 S 
ATOM     22  H   UNL     1      -9.199  -0.551  21.854  0.00  0.00    +0.000 HD
ATOM     23  H   UNL     1      -7.065  -0.697  23.414  0.00  0.00    +0.000 HD
ATOM     24  H   UNL     1      -5.723  -2.920  22.982  0.00  0.00    +0.000 HD
ENDBRANCH  14  17
ENDBRANCH  11  14
ENDBRANCH   6  11
BRANCH   7  25
ATOM     25  N   UNL     1     -11.764  -6.688  17.392  0.00  0.00    +0.000 N 
ATOM     26  H   UNL     1     -12.053  -5.742  17.659  0.00  0.00    +0.000 HD
ATOM     27  H   UNL     1     -11.894  -6.877  16.404  0.00  0.00    +0.000 HD
ENDBRANCH   7  25
BRANCH   1  28
ATOM     28  N   UNL     1     -10.634  -9.460  17.351  0.00  0.00    +0.000 N 
ATOM     29  H   UNL     1     -11.542  -9.247  16.938  0.00  0.00    +0.000 HD
BRANCH  28  35
ATOM     30  C   UNL     1      -9.146 -11.333  16.705  0.00  0.00    +0.000 A 
ATOM     31  C   UNL     1      -8.308 -11.909  15.739  0.00  0.00    +0.000 A 
ATOM     32  C   UNL     1      -8.205 -11.367  14.456  0.00  0.00    +0.000 A 
ATOM     33  C   UNL     1      -8.971 -10.267  14.102  0.00  0.00    +0.000 A 
ATOM     34  C   UNL     1      -9.804  -9.684  15.051  0.00  0.00    +0.000 A 
ATOM     35  C   UNL     1      -9.846 -10.153  16.377  0.00  0.00    +0.000 A 
ATOM     36  H   UNL     1      -7.709 -12.792  15.945  0.00  0.00    +0.000 HD
ATOM     37  H   UNL     1      -7.543 -11.828  13.725  0.00  0.00    +0.000 HD
ATOM     38  H   UNL     1      -8.928  -9.876  13.087  0.00  0.00    +0.000 HD
ATOM     39  H   UNL     1     -10.431  -8.855  14.720  0.00  0.00    +0.000 HD
BRANCH  30  40
ATOM     40  O   UNL     1      -9.314 -11.840  17.975  0.00  0.00    +0.000 OA
BRANCH  40  41
ATOM     41  C   UNL     1      -8.323 -12.788  18.405  0.00  0.00    +0.000 C 
ATOM     42  H   UNL     1      -7.601 -12.978  17.600  0.00  0.00    +0.000 HD
ATOM     43  H   UNL     1      -7.806 -12.400  19.290  0.00  0.00    +0.000 HD
BRANCH  41  44
ATOM     44  C   UNL     1      -8.978 -14.107  18.771  0.00  0.00    +0.000 C 
ATOM     45  H   UNL     1      -8.239 -14.787  19.209  0.00  0.00    +0.000 HD
ATOM     46  H   UNL     1      -9.403 -14.587  17.884  0.00  0.00    +0.000 HD
ATOM     47  H   UNL     1      -9.790 -13.958  19.487  0.00  0.00    +0.000 HD
ENDBRANCH  41  44
ENDBRANCH  40  41
ENDBRANCH  30  40
ENDBRANCH  28  35
ENDBRANCH   1  28
TORSDOF 9
ENDMDL
MODEL 4
REMARK VINA RESULT:    -8.855      3.416      9.008
REMARK INTER + INTRA:         -13.705
REMARK INTER:                 -13.026
REMARK INTRA:                  -0.679
REMARK UNBOUND:                -0.708
REMARK  Name = 
REMARK  9 active torsions:
REMARK  status: ('A' for Active; 'I' for Inactive)
REMARK    1  A    between atoms: C_1  and  C_2
REMARK    2  A    between atoms: C_2  and  O_3
REMARK    3  A    between atoms: O_3  and  C_4
REMARK    4  A    between atoms: C_9  and  N_10
REMARK    5  A    between atoms: N_10  and  C_11
REMARK    6  A    between atoms: N_16  and  C_17
REMARK    7  A    between atoms: C_17  and  C_18
REMARK    8  A    between atoms: C_18  and  C_19
REMARK    9  A    between atoms: C_24  and  N_25
REMARK                            x       y       z     vdW  Elec       q    Type
REMARK                         _______ _______ _______ _____ _____    ______ ____
ROOT
ATOM      1  C   UNL     1      -9.834  -7.642  17.945  0.00  0.00    +0.000 A 
ATOM      2  N   UNL     1     -10.206  -6.652  17.122  0.00  0.00    +0.000 N 
ATOM      3  C   UNL     1      -9.901  -5.389  17.382  0.00  0.00    +0.000 A 
ATOM      4  N   UNL     1      -9.200  -4.987  18.444  0.00  0.00    +0.000 NA
ATOM      5  C   UNL     1      -8.726  -5.959  19.244  0.00  0.00    +0.000 A 
ATOM      6  N   UNL     1      -7.996  -5.605  20.381  0.00  0.00    +0.000 N 
ATOM      7  C   UNL     1      -9.011  -7.332  19.039  0.00  0.00    +0.000 A 
ATOM      8  H   UNL     1     -10.759  -6.900  16.309  0.00  0.00    +0.000 HD
ATOM      9  H   UNL     1     -10.281  -4.631  16.704  0.00  0.00    +0.000 HD
ATOM     10  H   UNL     1      -7.050  -5.970  20.353  0.00  0.00    +0.000 HD
ENDROOT
BRANCH   6  11
ATOM     11  C   UNL     1      -8.114  -4.229  20.877  0.00  0.00    +0.000 C 
ATOM     12  H   UNL     1      -9.143  -4.001  21.189  0.00  0.00    +0.000 HD
ATOM     13  H   UNL     1      -7.889  -3.548  20.047  0.00  0.00    +0.000 HD
BRANCH  11  14
ATOM     14  C   UNL     1      -7.132  -3.947  22.034  0.00  0.00    +0.000 C 
ATOM     15  H   UNL     1      -6.214  -3.482  21.655  0.00  0.00    +0.000 HD
ATOM     16  H   UNL     1      -6.825  -4.903  22.478  0.00  0.00    +0.000 HD
BRANCH  14  17
ATOM     17  C   UNL     1      -7.743  -3.085  23.107  0.00  0.00    +0.000 A 
ATOM     18  C   UNL     1      -8.342  -3.484  24.286  0.00  0.00    +0.000 A 
ATOM     19  C   UNL     1      -8.881  -2.388  25.017  0.00  0.00    +0.000 A 
ATOM     20  C   UNL     1      -8.661  -1.185  24.386  0.00  0.00    +0.000 A 
ATOM     21  S   UNL     1      -7.759  -1.375  22.948  0.00  0.00    +0.000 S 
ATOM     22  H   UNL     1      -8.412  -4.519  24.601  0.00  0.00    +0.000 HD
ATOM     23  H   UNL     1      -9.413  -2.477  25.958  0.00  0.00    +0.000 HD
ATOM     24  H   UNL     1      -8.971  -0.201  24.712  0.00  0.00    +0.000 HD
ENDBRANCH  14  17
ENDBRANCH  11  14
ENDBRANCH   6  11
BRANCH   7  25
ATOM     25  N   UNL     1      -8.387  -8.305  19.844  0.00  0.00    +0.000 N 
ATOM     26  H   UNL     1      -7.527  -7.947  20.270  0.00  0.00    +0.000 HD
ATOM     27  H   UNL     1      -8.935  -8.875  20.478  0.00  0.00    +0.000 HD
ENDBRANCH   7  25
BRANCH   1  28
ATOM     28  N   UNL     1     -10.376  -8.918  17.691  0.00  0.00    +0.000 N 
ATOM     29  H   UNL     1     -11.393  -8.906  17.625  0.00  0.00    +0.000 HD
BRANCH  28  35
ATOM     30  C   UNL     1      -9.132 -10.948  17.005  0.00  0.00    +0.000 A 
ATOM     31  C   UNL     1      -8.570 -11.706  15.967  0.00  0.00    +0.000 A 
ATOM     32  C   UNL     1      -8.776 -11.364  14.630  0.00  0.00    +0.000 A 
ATOM     33  C   UNL     1      -9.583 -10.285  14.303  0.00  0.00    +0.000 A 
ATOM     34  C   UNL     1     -10.145  -9.523  15.322  0.00  0.00    +0.000 A 
ATOM     35  C   UNL     1      -9.867  -9.790  16.677  0.00  0.00    +0.000 A 
ATOM     36  H   UNL     1      -7.958 -12.583  16.158  0.00  0.00    +0.000 HD
ATOM     37  H   UNL     1      -8.326 -11.965  13.842  0.00  0.00    +0.000 HD
ATOM     38  H   UNL     1      -9.784 -10.050  13.260  0.00  0.00    +0.000 HD
ATOM     39  H   UNL     1     -10.817  -8.717  15.028  0.00  0.00    +0.000 HD
BRANCH  30  40
ATOM     40  O   UNL     1      -8.991 -11.254  18.342  0.00  0.00    +0.000 OA
BRANCH  40  41
ATOM     41  C   UNL     1      -8.091 -12.332  18.643  0.00  0.00    +0.000 C 
ATOM     42  H   UNL     1      -7.374 -12.472  17.825  0.00  0.00    +0.000 HD
ATOM     43  H   UNL     1      -7.559 -12.115  19.577  0.00  0.00    +0.000 HD
BRANCH  41  44
ATOM     44  C   UNL     1      -8.861 -13.628  18.821  0.00  0.00    +0.000 C 
ATOM     45  H   UNL     1      -8.588 -14.341  18.035  0.00  0.00    +0.000 HD
ATOM     46  H   UNL     1      -9.940 -13.448  18.763  0.00  0.00    +0.000 HD
ATOM     47  H   UNL     1      -8.654 -14.079  19.795  0.00  0.00    +0.000 HD
ENDBRANCH  41  44
ENDBRANCH  40  41
ENDBRANCH  30  40
ENDBRANCH  28  35
ENDBRANCH   1  28
TORSDOF 9
ENDMDL
MODEL 5
REMARK VINA RESULT:    -8.830      4.463      8.106
REMARK INTER + INTRA:         -13.667
REMARK INTER:                 -12.969
REMARK INTRA:                  -0.698
REMARK UNBOUND:                -0.708
REMARK  Name = 
REMARK  9 active torsions:
REMARK  status: ('A' for Active; 'I' for Inactive)
REMARK    1  A    between atoms: C_1  and  C_2
REMARK    2  A    between atoms: C_2  and  O_3
REMARK    3  A    between atoms: O_3  and  C_4
REMARK    4  A    between atoms: C_9  and  N_10
REMARK    5  A    between atoms: N_10  and  C_11
REMARK    6  A    between atoms: N_16  and  C_17
REMARK    7  A    between atoms: C_17  and  C_18
REMARK    8  A    between atoms: C_18  and  C_19
REMARK    9  A    between atoms: C_24  and  N_25
REMARK                            x       y       z     vdW  Elec       q    Type
REMARK                         _______ _______ _______ _____ _____    ______ ____
ROOT
ATOM      1  C   UNL     1      -9.450  -7.681  18.533  0.00  0.00    +0.000 A 
ATOM      2  N   UNL     1      -8.324  -7.075  18.932  0.00  0.00    +0.000 N 
ATOM      3  C   UNL     1      -8.228  -5.754  18.968  0.00  0.00    +0.000 A 
ATOM      4  N   UNL     1      -9.216  -4.918  18.639  0.00  0.00    +0.000 NA
ATOM      5  C   UNL     1     -10.394  -5.487  18.325  0.00  0.00    +0.000 A 
ATOM      6  N   UNL     1     -11.465  -4.668  17.959  0.00  0.00    +0.000 N 
ATOM      7  C   UNL     1     -10.577  -6.891  18.259  0.00  0.00    +0.000 A 
ATOM      8  H   UNL     1      -7.534  -7.663  19.174  0.00  0.00    +0.000 HD
ATOM      9  H   UNL     1      -7.269  -5.327  19.246  0.00  0.00    +0.000 HD
ATOM     10  H   UNL     1     -12.250  -4.765  18.594  0.00  0.00    +0.000 HD
ENDROOT
BRANCH   6  11
ATOM     11  C   UNL     1     -11.172  -3.293  17.541  0.00  0.00    +0.000 C 
ATOM     12  H   UNL     1     -10.166  -3.210  17.107  0.00  0.00    +0.000 HD
ATOM     13  H   UNL     1     -11.170  -2.658  18.437  0.00  0.00    +0.000 HD
BRANCH  11  14
ATOM     14  C   UNL     1     -12.226  -2.754  16.551  0.00  0.00    +0.000 C 
ATOM     15  H   UNL     1     -12.416  -1.689  16.733  0.00  0.00    +0.000 HD
ATOM     16  H   UNL     1     -13.178  -3.268  16.735  0.00  0.00    +0.000 HD
BRANCH  14  17
ATOM     17  C   UNL     1     -11.825  -2.970  15.115  0.00  0.00    +0.000 A 
ATOM     18  C   UNL     1     -11.486  -4.154  14.491  0.00  0.00    +0.000 A 
ATOM     19  C   UNL     1     -11.082  -3.958  13.140  0.00  0.00    +0.000 A 
ATOM     20  C   UNL     1     -11.144  -2.635  12.767  0.00  0.00    +0.000 A 
ATOM     21  S   UNL     1     -11.741  -1.645  14.025  0.00  0.00    +0.000 S 
ATOM     22  H   UNL     1     -11.504  -5.119  14.986  0.00  0.00    +0.000 HD
ATOM     23  H   UNL     1     -10.754  -4.749  12.475  0.00  0.00    +0.000 HD
ATOM     24  H   UNL     1     -10.885  -2.205  11.809  0.00  0.00    +0.000 HD
ENDBRANCH  14  17
ENDBRANCH  11  14
ENDBRANCH   6  11
BRANCH   7  25
ATOM     25  N   UNL     1     -11.864  -7.420  18.040  0.00  0.00    +0.000 N 
ATOM     26  H   UNL     1     -12.427  -6.807  17.441  0.00  0.00    +0.000 HD
ATOM     27  H   UNL     1     -11.985  -8.403  17.823  0.00  0.00    +0.000 HD
ENDBRANCH   7  25
BRANCH   1  28
ATOM     28  N   UNL     1      -9.387  -9.075  18.336  0.00  0.00    +0.000 N 
ATOM     29  H   UNL     1     -10.144  -9.571  18.807  0.00  0.00    +0.000 HD
BRANCH  28  35
ATOM     30  C   UNL     1      -9.071 -11.069  16.901  0.00  0.00    +0.000 A 
ATOM     31  C   UNL     1      -8.771 -11.586  15.632  0.00  0.00    +0.000 A 
ATOM     32  C   UNL     1      -8.643 -10.750  14.522  0.00  0.00    +0.000 A 
ATOM     33  C   UNL     1      -8.857  -9.386  14.650  0.00  0.00    +0.000 A 
ATOM     34  C   UNL     1      -9.153  -8.858  15.902  0.00  0.00    +0.000 A 
ATOM     35  C   UNL     1      -9.187  -9.671  17.051  0.00  0.00    +0.000 A 
ATOM     36  H   UNL     1      -8.626 -12.650  15.461  0.00  0.00    +0.000 HD
ATOM     37  H   UNL     1      -8.404 -11.175  13.548  0.00  0.00    +0.000 HD
ATOM     38  H   UNL     1      -8.807  -8.741  13.774  0.00  0.00    +0.000 HD
ATOM     39  H   UNL     1      -9.368  -7.791  15.953  0.00  0.00    +0.000 HD
BRANCH  30  40
ATOM     40  O   UNL     1      -9.241 -11.846  18.025  0.00  0.00    +0.000 OA
BRANCH  40  41
ATOM     41  C   UNL     1      -8.233 -12.844  18.253  0.00  0.00    +0.000 C 
ATOM     42  H   UNL     1      -7.701 -13.070  17.320  0.00  0.00    +0.000 HD
ATOM     43  H   UNL     1      -7.526 -12.484  19.010  0.00  0.00    +0.000 HD
BRANCH  41  44
ATOM     44  C   UNL     1      -8.865 -14.128  18.758  0.00  0.00    +0.000 C 
ATOM     45  H   UNL     1      -9.462 -13.928  19.654  0.00  0.00    +0.000 HD
ATOM     46  H   UNL     1      -8.096 -14.864  19.013  0.00  0.00    +0.000 HD
ATOM     47  H   UNL     1      -9.510 -14.575  17.996  0.00  0.00    +0.000 HD
ENDBRANCH  41  44
ENDBRANCH  40  41
ENDBRANCH  30  40
ENDBRANCH  28  35
ENDBRANCH   1  28
TORSDOF 9
ENDMDL
MODEL 6
REMARK VINA RESULT:    -8.801      3.040      7.445
REMARK INTER + INTRA:         -13.624
REMARK INTER:                 -13.522
REMARK INTRA:                  -0.103
REMARK UNBOUND:                -0.708
REMARK  Name = 
REMARK  9 active torsions:
REMARK  status: ('A' for Active; 'I' for Inactive)
REMARK    1  A    between atoms: C_1  and  C_2
REMARK    2  A    between atoms: C_2  and  O_3
REMARK    3  A    between atoms: O_3  and  C_4
REMARK    4  A    between atoms: C_9  and  N_10
REMARK    5  A    between atoms: N_10  and  C_11
REMARK    6  A    between atoms: N_16  and  C_17
REMARK    7  A    between atoms: C_17  and  C_18
REMARK    8  A    between atoms: C_18  and  C_19
REMARK    9  A    between atoms: C_24  and  N_25
REMARK                            x       y       z     vdW  Elec       q    Type
REMARK                         _______ _______ _______ _____ _____    ______ ____
ROOT
ATOM      1  C   UNL     1      -9.868  -8.067  16.212  0.00  0.00    +0.000 A 
ATOM      2  N   UNL     1     -11.061  -8.235  16.797  0.00  0.00    +0.000 N 
ATOM      3  C   UNL     1     -11.494  -7.401  17.731  0.00  0.00    +0.000 A 
ATOM      4  N   UNL     1     -10.816  -6.333  18.159  0.00  0.00    +0.000 NA
ATOM      5  C   UNL     1      -9.656  -6.075  17.528  0.00  0.00    +0.000 A 
ATOM      6  N   UNL     1      -8.893  -4.979  17.936  0.00  0.00    +0.000 N 
ATOM      7  C   UNL     1      -9.122  -6.919  16.522  0.00  0.00    +0.000 A 
ATOM      8  H   UNL     1     -11.609  -9.043  16.523  0.00  0.00    +0.000 HD
ATOM      9  H   UNL     1     -12.443  -7.626  18.205  0.00  0.00    +0.000 HD
ATOM     10  H   UNL     1      -8.775  -4.300  17.191  0.00  0.00    +0.000 HD
ENDROOT
BRANCH   6  11
ATOM     11  C   UNL     1      -9.159  -4.406  19.260  0.00  0.00    +0.000 C 
ATOM     12  H   UNL     1     -10.237  -4.367  19.472  0.00  0.00    +0.000 HD
ATOM     13  H   UNL     1      -8.812  -3.365  19.256  0.00  0.00    +0.000 HD
BRANCH  11  14
ATOM     14  C   UNL     1      -8.423  -5.172  20.378  0.00  0.00    +0.000 C 
ATOM     15  H   UNL     1      -8.726  -6.227  20.387  0.00  0.00    +0.000 HD
ATOM     16  H   UNL     1      -8.730  -4.762  21.349  0.00  0.00    +0.000 HD
BRANCH  14  17
ATOM     17  C   UNL     1      -6.925  -5.067  20.255  0.00  0.00    +0.000 A 
ATOM     18  C   UNL     1      -6.080  -5.807  19.453  0.00  0.00    +0.000 A 
ATOM     19  C   UNL     1      -4.709  -5.482  19.665  0.00  0.00    +0.000 A 
ATOM     20  C   UNL     1      -4.552  -4.491  20.607  0.00  0.00    +0.000 A 
ATOM     21  S   UNL     1      -6.052  -3.919  21.188  0.00  0.00    +0.000 S 
ATOM     22  H   UNL     1      -6.424  -6.566  18.760  0.00  0.00    +0.000 HD
ATOM     23  H   UNL     1      -3.878  -5.958  19.157  0.00  0.00    +0.000 HD
ATOM     24  H   UNL     1      -3.626  -4.062  20.967  0.00  0.00    +0.000 HD
ENDBRANCH  14  17
ENDBRANCH  11  14
ENDBRANCH   6  11
BRANCH   7  25
ATOM     25  N   UNL     1      -7.965  -6.529  15.822  0.00  0.00    +0.000 N 
ATOM     26  H   UNL     1      -7.354  -7.329  15.627  0.00  0.00    +0.000 HD
ATOM     27  H   UNL     1      -8.029  -5.883  15.044  0.00  0.00    +0.000 HD
ENDBRANCH   7  25
BRANCH   1  28
ATOM     28  N   UNL     1      -9.413  -9.113  15.382  0.00  0.00    +0.000 N 
ATOM     29  H   UNL     1      -8.648  -8.824  14.773  0.00  0.00    +0.000 HD
BRANCH  28  35
ATOM     30  C   UNL     1      -8.870 -10.659  17.240  0.00  0.00    +0.000 A 
ATOM     31  C   UNL     1      -8.495 -11.949  17.644  0.00  0.00    +0.000 A 
ATOM     32  C   UNL     1      -8.432 -13.003  16.731  0.00  0.00    +0.000 A 
ATOM     33  C   UNL     1      -8.785 -12.797  15.406  0.00  0.00    +0.000 A 
ATOM     34  C   UNL     1      -9.156 -11.523  14.990  0.00  0.00    +0.000 A 
ATOM     35  C   UNL     1      -9.129 -10.426  15.873  0.00  0.00    +0.000 A 
ATOM     36  H   UNL     1      -8.241 -12.181  18.675  0.00  0.00    +0.000 HD
ATOM     37  H   UNL     1      -8.134 -13.994  17.067  0.00  0.00    +0.000 HD
ATOM     38  H   UNL     1      -8.785 -13.630  14.705  0.00  0.00    +0.000 HD
ATOM     39  H   UNL     1      -9.479 -11.412  13.955  0.00  0.00    +0.000 HD
BRANCH  30  40
ATOM     40  O   UNL     1      -8.981  -9.588  18.100  0.00  0.00    +0.000 OA
BRANCH  40  41
ATOM     41  C   UNL     1      -8.550  -9.824  19.450  0.00  0.00    +0.000 C 
ATOM     42  H   UNL     1      -9.005 -10.742  19.842  0.00  0.00    +0.000 HD
ATOM     43  H   UNL     1      -7.457  -9.906  19.475  0.00  0.00    +0.000 HD
BRANCH  41  44
ATOM     44  C   UNL     1      -8.965  -8.672  20.346  0.00  0.00    +0.000 C 
ATOM     45  H   UNL     1      -8.319  -7.805  20.170  0.00  0.00    +0.000 HD
ATOM     46  H   UNL     1      -8.884  -8.953  21.400  0.00  0.00    +0.000 HD
ATOM     47  H   UNL     1     -10.003  -8.383  20.160  0.00  0.00    +0.000 HD
ENDBRANCH  41  44
ENDBRANCH  40  41
ENDBRANCH  30  40
ENDBRANCH  28  35
ENDBRANCH   1  28
TORSDOF 9
ENDMDL
MODEL 7
REMARK VINA RESULT:    -8.799      3.404      8.674
REMARK INTER + INTRA:         -13.623
REMARK INTER:                 -12.948
REMARK INTRA:                  -0.674
REMARK UNBOUND:                -0.708
REMARK  Name = 
REMARK  9 active torsions:
REMARK  status: ('A' for Active; 'I' for Inactive)
REMARK    1  A    between atoms: C_1  and  C_2
REMARK    2  A    between atoms: C_2  and  O_3
REMARK    3  A    between atoms: O_3  and  C_4
REMARK    4  A    between atoms: C_9  and  N_10
REMARK    5  A    between atoms: N_10  and  C_11
REMARK    6  A    between atoms: N_16  and  C_17
REMARK    7  A    between atoms: C_17  and  C_18
REMARK    8  A    between atoms: C_18  and  C_19
REMARK    9  A    between atoms: C_24  and  N_25
REMARK                            x       y       z     vdW  Elec       q    Type
REMARK                         _______ _______ _______ _____ _____    ______ ____
ROOT
ATOM      1  C   UNL     1      -8.381  -6.652  17.539  0.00  0.00    +0.000 A 
ATOM      2  N   UNL     1      -7.053  -6.629  17.369  0.00  0.00    +0.000 N 
ATOM      3  C   UNL     1      -6.264  -5.950  18.189  0.00  0.00    +0.000 A 
ATOM      4  N   UNL     1      -6.696  -5.257  19.245  0.00  0.00    +0.000 NA
ATOM      5  C   UNL     1      -8.013  -5.334  19.507  0.00  0.00    +0.000 A 
ATOM      6  N   UNL     1      -8.531  -4.622  20.591  0.00  0.00    +0.000 N 
ATOM      7  C   UNL     1      -8.924  -6.035  18.676  0.00  0.00    +0.000 A 
ATOM      8  H   UNL     1      -6.673  -7.123  16.568  0.00  0.00    +0.000 HD
ATOM      9  H   UNL     1      -5.204  -5.927  17.961  0.00  0.00    +0.000 HD
ATOM     10  H   UNL     1      -8.951  -5.235  21.282  0.00  0.00    +0.000 HD
ENDROOT
BRANCH   6  11
ATOM     11  C   UNL     1      -7.729  -3.524  21.143  0.00  0.00    +0.000 C 
ATOM     12  H   UNL     1      -8.253  -2.562  21.059  0.00  0.00    +0.000 HD
ATOM     13  H   UNL     1      -6.820  -3.429  20.536  0.00  0.00    +0.000 HD
BRANCH  11  14
ATOM     14  C   UNL     1      -7.326  -3.785  22.609  0.00  0.00    +0.000 C 
ATOM     15  H   UNL     1      -6.239  -3.697  22.732  0.00  0.00    +0.000 HD
ATOM     16  H   UNL     1      -7.575  -4.823  22.865  0.00  0.00    +0.000 HD
BRANCH  14  17
ATOM     17  C   UNL     1      -8.030  -2.864  23.570  0.00  0.00    +0.000 A 
ATOM     18  C   UNL     1      -8.720  -3.194  24.720  0.00  0.00    +0.000 A 
ATOM     19  C   UNL     1      -9.327  -2.060  25.332  0.00  0.00    +0.000 A 
ATOM     20  C   UNL     1      -9.066  -0.898  24.643  0.00  0.00    +0.000 A 
ATOM     21  S   UNL     1      -8.047  -1.168  23.299  0.00  0.00    +0.000 S 
ATOM     22  H   UNL     1      -8.808  -4.207  25.096  0.00  0.00    +0.000 HD
ATOM     23  H   UNL     1      -9.934  -2.096  26.229  0.00  0.00    +0.000 HD
ATOM     24  H   UNL     1      -9.410   0.101  24.877  0.00  0.00    +0.000 HD
ENDBRANCH  14  17
ENDBRANCH  11  14
ENDBRANCH   6  11
BRANCH   7  25
ATOM     25  N   UNL     1     -10.268  -6.174  19.072  0.00  0.00    +0.000 N 
ATOM     26  H   UNL     1     -10.773  -5.284  19.011  0.00  0.00    +0.000 HD
ATOM     27  H   UNL     1     -10.819  -6.963  18.752  0.00  0.00    +0.000 HD
ENDBRANCH   7  25
BRANCH   1  28
ATOM     28  N   UNL     1      -9.146  -7.231  16.505  0.00  0.00    +0.000 N 
ATOM     29  H   UNL     1      -9.122  -6.682  15.646  0.00  0.00    +0.000 HD
BRANCH  28  35
ATOM     30  C   UNL     1      -9.153  -9.625  17.141  0.00  0.00    +0.000 A 
ATOM     31  C   UNL     1      -8.960 -10.960  16.754  0.00  0.00    +0.000 A 
ATOM     32  C   UNL     1      -8.738 -11.301  15.419  0.00  0.00    +0.000 A 
ATOM     33  C   UNL     1      -8.750 -10.320  14.439  0.00  0.00    +0.000 A 
ATOM     34  C   UNL     1      -8.938  -8.992  14.808  0.00  0.00    +0.000 A 
ATOM     35  C   UNL     1      -9.062  -8.616  16.159  0.00  0.00    +0.000 A 
ATOM     36  H   UNL     1      -8.975 -11.776  17.471  0.00  0.00    +0.000 HD
ATOM     37  H   UNL     1      -8.585 -12.343  15.145  0.00  0.00    +0.000 HD
ATOM     38  H   UNL     1      -8.627 -10.593  13.393  0.00  0.00    +0.000 HD
ATOM     39  H   UNL     1      -8.995  -8.257  14.005  0.00  0.00    +0.000 HD
BRANCH  30  40
ATOM     40  O   UNL     1      -9.409  -9.230  18.436  0.00  0.00    +0.000 OA
BRANCH  40  41
ATOM     41  C   UNL     1      -8.539  -9.781  19.438  0.00  0.00    +0.000 C 
ATOM     42  H   UNL     1      -8.689 -10.865  19.521  0.00  0.00    +0.000 HD
ATOM     43  H   UNL     1      -7.497  -9.564  19.178  0.00  0.00    +0.000 HD
BRANCH  41  44
ATOM     44  C   UNL     1      -8.835  -9.160  20.791  0.00  0.00    +0.000 C 
ATOM     45  H   UNL     1      -8.109  -9.509  21.534  0.00  0.00    +0.000 HD
ATOM     46  H   UNL     1      -9.837  -9.437  21.134  0.00  0.00    +0.000 HD
ATOM     47  H   UNL     1      -8.792  -8.069  20.742  0.00  0.00    +0.000 HD
ENDBRANCH  41  44
ENDBRANCH  40  41
ENDBRANCH  30  40
ENDBRANCH  28  35
ENDBRANCH   1  28
TORSDOF 9
ENDMDL
MODEL 8
REMARK VINA RESULT:    -8.615      3.811      8.619
REMARK INTER + INTRA:         -13.352
REMARK INTER:                 -12.876
REMARK INTRA:                  -0.476
REMARK UNBOUND:                -0.708
REMARK  Name = 
REMARK  9 active torsions:
REMARK  status: ('A' for Active; 'I' for Inactive)
REMARK    1  A    between atoms: C_1  and  C_2
REMARK    2  A    between atoms: C_2  and  O_3
REMARK    3  A    between atoms: O_3  and  C_4
REMARK    4  A    between atoms: C_9  and  N_10
REMARK    5  A    between atoms: N_10  and  C_11
REMARK    6  A    between atoms: N_16  and  C_17
REMARK    7  A    between atoms: C_17  and  C_18
REMARK    8  A    between atoms: C_18  and  C_19
REMARK    9  A    between atoms: C_24  and  N_25
REMARK                            x       y       z     vdW  Elec       q    Type
REMARK                         _______ _______ _______ _____ _____    ______ ____
ROOT
ATOM      1  C   UNL     1      -9.651  -7.881  16.763  0.00  0.00    +0.000 A 
ATOM      2  N   UNL     1      -8.345  -7.591  16.837  0.00  0.00    +0.000 N 
ATOM      3  C   UNL     1      -7.917  -6.485  17.428  0.00  0.00    +0.000 A 
ATOM      4  N   UNL     1      -8.714  -5.585  18.008  0.00  0.00    +0.000 NA
ATOM      5  C   UNL     1     -10.025  -5.886  18.039  0.00  0.00    +0.000 A 
ATOM      6  N   UNL     1     -10.914  -4.979  18.621  0.00  0.00    +0.000 N 
ATOM      7  C   UNL     1     -10.563  -7.045  17.427  0.00  0.00    +0.000 A 
ATOM      8  H   UNL     1      -7.696  -8.233  16.395  0.00  0.00    +0.000 HD
ATOM      9  H   UNL     1      -6.851  -6.283  17.403  0.00  0.00    +0.000 HD
ATOM     10  H   UNL     1     -11.399  -5.380  19.416  0.00  0.00    +0.000 HD
ENDROOT
BRANCH   6  11
ATOM     11  C   UNL     1     -10.468  -3.593  18.801  0.00  0.00    +0.000 C 
ATOM     12  H   UNL     1     -10.082  -3.170  17.863  0.00  0.00    +0.000 HD
ATOM     13  H   UNL     1      -9.626  -3.595  19.503  0.00  0.00    +0.000 HD
BRANCH  11  14
ATOM     14  C   UNL     1     -11.588  -2.697  19.368  0.00  0.00    +0.000 C 
ATOM     15  H   UNL     1     -12.489  -3.288  19.573  0.00  0.00    +0.000 HD
ATOM     16  H   UNL     1     -11.876  -1.963  18.604  0.00  0.00    +0.000 HD
BRANCH  14  17
ATOM     17  C   UNL     1     -11.159  -1.962  20.612  0.00  0.00    +0.000 A 
ATOM     18  C   UNL     1     -11.956  -1.365  21.569  0.00  0.00    +0.000 A 
ATOM     19  C   UNL     1     -11.193  -0.690  22.564  0.00  0.00    +0.000 A 
ATOM     20  C   UNL     1      -9.839  -0.810  22.348  0.00  0.00    +0.000 A 
ATOM     21  S   UNL     1      -9.493  -1.778  20.985  0.00  0.00    +0.000 S 
ATOM     22  H   UNL     1     -13.040  -1.389  21.546  0.00  0.00    +0.000 HD
ATOM     23  H   UNL     1     -11.617  -0.137  23.395  0.00  0.00    +0.000 HD
ATOM     24  H   UNL     1      -9.036  -0.389  22.939  0.00  0.00    +0.000 HD
ENDBRANCH  14  17
ENDBRANCH  11  14
ENDBRANCH   6  11
BRANCH   7  25
ATOM     25  N   UNL     1     -11.925  -7.360  17.599  0.00  0.00    +0.000 N 
ATOM     26  H   UNL     1     -12.134  -8.315  17.289  0.00  0.00    +0.000 HD
ATOM     27  H   UNL     1     -12.406  -7.108  18.454  0.00  0.00    +0.000 HD
ENDBRANCH   7  25
BRANCH   1  28
ATOM     28  N   UNL     1     -10.017  -8.968  15.944  0.00  0.00    +0.000 N 
ATOM     29  H   UNL     1     -10.008  -8.732  14.952  0.00  0.00    +0.000 HD
BRANCH  28  35
ATOM     30  C   UNL     1      -9.170 -10.803  17.378  0.00  0.00    +0.000 A 
ATOM     31  C   UNL     1      -8.535 -12.051  17.462  0.00  0.00    +0.000 A 
ATOM     32  C   UNL     1      -8.248 -12.795  16.317  0.00  0.00    +0.000 A 
ATOM     33  C   UNL     1      -8.630 -12.327  15.069  0.00  0.00    +0.000 A 
ATOM     34  C   UNL     1      -9.258 -11.090  14.969  0.00  0.00    +0.000 A 
ATOM     35  C   UNL     1      -9.466 -10.279  16.102  0.00  0.00    +0.000 A 
ATOM     36  H   UNL     1      -8.243 -12.487  18.414  0.00  0.00    +0.000 HD
ATOM     37  H   UNL     1      -7.749 -13.758  16.408  0.00  0.00    +0.000 HD
ATOM     38  H   UNL     1      -8.451 -12.931  14.182  0.00  0.00    +0.000 HD
ATOM     39  H   UNL     1      -9.592 -10.781  13.979  0.00  0.00    +0.000 HD
BRANCH  30  40
ATOM     40  O   UNL     1      -9.508 -10.038  18.473  0.00  0.00    +0.000 OA
BRANCH  40  41
ATOM     41  C   UNL     1      -8.546 -10.015  19.539  0.00  0.00    +0.000 C 
ATOM     42  H   UNL     1      -8.716 -10.854  20.226  0.00  0.00    +0.000 HD
ATOM     43  H   UNL     1      -7.534 -10.072  19.120  0.00  0.00    +0.000 HD
BRANCH  41  44
ATOM     44  C   UNL     1      -8.666  -8.726  20.331  0.00  0.00    +0.000 C 
ATOM     45  H   UNL     1      -7.718  -8.501  20.832  0.00  0.00    +0.000 HD
ATOM     46  H   UNL     1      -9.446  -8.811  21.093  0.00  0.00    +0.000 HD
ATOM     47  H   UNL     1      -8.929  -7.888  19.680  0.00  0.00    +0.000 HD
ENDBRANCH  41  44
ENDBRANCH  40  41
ENDBRANCH  30  40
ENDBRANCH  28  35
ENDBRANCH   1  28
TORSDOF 9
ENDMDL
MODEL 9
REMARK VINA RESULT:    -8.513      4.256      8.040
REMARK INTER + INTRA:         -13.202
REMARK INTER:                 -12.659
REMARK INTRA:                  -0.543
REMARK UNBOUND:                -0.708
REMARK  Name = 
REMARK  9 active torsions:
REMARK  status: ('A' for Active; 'I' for Inactive)
REMARK    1  A    between atoms: C_1  and  C_2
REMARK    2  A    between atoms: C_2  and  O_3
REMARK    3  A    between atoms: O_3  and  C_4
REMARK    4  A    between atoms: C_9  and  N_10
REMARK    5  A    between atoms: N_10  and  C_11
REMARK    6  A    between atoms: N_16  and  C_17
REMARK    7  A    between atoms: C_17  and  C_18
REMARK    8  A    between atoms: C_18  and  C_19
REMARK    9  A    between atoms: C_24  and  N_25
REMARK                            x       y       z     vdW  Elec       q    Type
REMARK                         _______ _______ _______ _____ _____    ______ ____
ROOT
ATOM      1  C   UNL     1      -9.782  -8.138  16.688  0.00  0.00    +0.000 A 
ATOM      2  N   UNL     1      -8.499  -7.757  16.650  0.00  0.00    +0.000 N 
ATOM      3  C   UNL     1      -8.107  -6.600  17.163  0.00  0.00    +0.000 A 
ATOM      4  N   UNL     1      -8.921  -5.732  17.769  0.00  0.00    +0.000 NA
ATOM      5  C   UNL     1     -10.201  -6.121  17.914  0.00  0.00    +0.000 A 
ATOM      6  N   UNL     1     -11.107  -5.253  18.528  0.00  0.00    +0.000 N 
ATOM      7  C   UNL     1     -10.700  -7.340  17.389  0.00  0.00    +0.000 A 
ATOM      8  H   UNL     1      -7.841  -8.371  16.182  0.00  0.00    +0.000 HD
ATOM      9  H   UNL     1      -7.064  -6.327  17.048  0.00  0.00    +0.000 HD
ATOM     10  H   UNL     1     -11.501  -5.652  19.374  0.00  0.00    +0.000 HD
ENDROOT
BRANCH   6  11
ATOM     11  C   UNL     1     -10.749  -3.833  18.620  0.00  0.00    +0.000 C 
ATOM     12  H   UNL     1      -9.816  -3.617  18.081  0.00  0.00    +0.000 HD
ATOM     13  H   UNL     1     -10.553  -3.600  19.674  0.00  0.00    +0.000 HD
BRANCH  11  14
ATOM     14  C   UNL     1     -11.883  -2.919  18.110  0.00  0.00    +0.000 C 
ATOM     15  H   UNL     1     -11.869  -1.957  18.638  0.00  0.00    +0.000 HD
ATOM     16  H   UNL     1     -12.847  -3.383  18.352  0.00  0.00    +0.000 HD
BRANCH  14  17
ATOM     17  C   UNL     1     -11.810  -2.692  16.622  0.00  0.00    +0.000 A 
ATOM     18  C   UNL     1     -11.551  -3.616  15.630  0.00  0.00    +0.000 A 
ATOM     19  C   UNL     1     -11.481  -3.018  14.339  0.00  0.00    +0.000 A 
ATOM     20  C   UNL     1     -11.709  -1.662  14.383  0.00  0.00    +0.000 A 
ATOM     21  S   UNL     1     -12.060  -1.125  15.966  0.00  0.00    +0.000 S 
ATOM     22  H   UNL     1     -11.395  -4.672  15.820  0.00  0.00    +0.000 HD
ATOM     23  H   UNL     1     -11.266  -3.556  13.422  0.00  0.00    +0.000 HD
ATOM     24  H   UNL     1     -11.703  -0.964  13.557  0.00  0.00    +0.000 HD
ENDBRANCH  14  17
ENDBRANCH  11  14
ENDBRANCH   6  11
BRANCH   7  25
ATOM     25  N   UNL     1     -12.019  -7.739  17.678  0.00  0.00    +0.000 N 
ATOM     26  H   UNL     1     -12.060  -8.323  18.519  0.00  0.00    +0.000 HD
ATOM     27  H   UNL     1     -12.781  -7.074  17.621  0.00  0.00    +0.000 HD
ENDBRANCH   7  25
BRANCH   1  28
ATOM     28  N   UNL     1     -10.130  -9.282  15.942  0.00  0.00    +0.000 N 
ATOM     29  H   UNL     1     -10.194  -9.093  14.942  0.00  0.00    +0.000 HD
BRANCH  28  35
ATOM     30  C   UNL     1      -9.108 -11.004  17.401  0.00  0.00    +0.000 A 
ATOM     31  C   UNL     1      -8.394 -12.207  17.503  0.00  0.00    +0.000 A 
ATOM     32  C   UNL     1      -8.112 -12.978  16.374  0.00  0.00    +0.000 A 
ATOM     33  C   UNL     1      -8.578 -12.584  15.128  0.00  0.00    +0.000 A 
ATOM     34  C   UNL     1      -9.285 -11.392  15.012  0.00  0.00    +0.000 A 
ATOM     35  C   UNL     1      -9.492 -10.551  16.122  0.00  0.00    +0.000 A 
ATOM     36  H   UNL     1      -8.033 -12.586  18.455  0.00  0.00    +0.000 HD
ATOM     37  H   UNL     1      -7.552 -13.905  16.477  0.00  0.00    +0.000 HD
ATOM     38  H   UNL     1      -8.401 -13.211  14.256  0.00  0.00    +0.000 HD
ATOM     39  H   UNL     1      -9.682 -11.143  14.028  0.00  0.00    +0.000 HD
BRANCH  30  40
ATOM     40  O   UNL     1      -9.444 -10.218  18.482  0.00  0.00    +0.000 OA
BRANCH  40  41
ATOM     41  C   UNL     1      -8.420 -10.055  19.477  0.00  0.00    +0.000 C 
ATOM     42  H   UNL     1      -8.439 -10.892  20.186  0.00  0.00    +0.000 HD
ATOM     43  H   UNL     1      -7.441  -9.998  18.988  0.00  0.00    +0.000 HD
BRANCH  41  44
ATOM     44  C   UNL     1      -8.642  -8.772  20.257  0.00  0.00    +0.000 C 
ATOM     45  H   UNL     1      -9.295  -8.096  19.694  0.00  0.00    +0.000 HD
ATOM     46  H   UNL     1      -7.692  -8.261  20.439  0.00  0.00    +0.000 HD
ATOM     47  H   UNL     1      -9.099  -8.977  21.229  0.00  0.00    +0.000 HD
ENDBRANCH  41  44
ENDBRANCH  40  41
ENDBRANCH  30  40
ENDBRANCH  28  35
ENDBRANCH   1  28
TORSDOF 9
ENDMDL
