
 OpenBabel01112423153D

 57 60  0  0  1  0  0  0  0  0999 V2000
    2.1270   -3.6849   -1.9264 C   0  0  0  0  0  0  0  0  0  0  0  0
    3.3184   -2.8824   -1.5104 C   0  0  0  0  0  0  0  0  0  0  0  0
    4.7854   -3.0480   -2.3713 S   0  0  0  0  0  0  0  0  0  0  0  0
    5.5704   -1.8970   -1.3968 C   0  0  0  0  0  0  0  0  0  0  0  0
    6.8609   -1.5499   -1.6352 N   0  0  0  0  0  0  0  0  0  0  0  0
    7.3246   -0.6096   -0.8666 C   0  0  0  0  0  0  0  0  0  0  0  0
    8.7219   -0.0487   -1.1304 C   0  0  1  0  0  0  0  0  0  0  0  0
    8.5543    1.1254   -2.0995 C   0  0  0  0  0  0  0  0  0  0  0  0
    9.3738    0.3924    0.1320 N   0  0  0  0  0  0  0  0  0  0  0  0
   10.6938    0.8901    0.0062 C   0  0  0  0  0  0  0  0  0  0  0  0
   11.5862    0.4612   -0.9828 C   0  0  0  0  0  0  0  0  0  0  0  0
   12.8893    0.9677   -1.0628 C   0  0  0  0  0  0  0  0  0  0  0  0
   13.3887    1.8775   -0.1247 C   0  0  0  0  0  0  0  0  0  0  0  0
   14.6892    2.3263   -0.2241 N   0  0  0  0  0  0  0  0  0  0  0  0
   15.5134    2.6436    0.9482 C   0  0  0  0  0  0  0  0  0  0  0  0
   15.9959    4.1064    0.8831 C   0  0  1  0  0  0  0  0  0  0  0  0
   16.9904    4.3836    2.0021 C   0  0  0  0  0  0  0  0  0  0  0  0
   16.6594    4.3815   -0.3709 O   0  0  0  0  0  0  0  0  0  0  0  0
   15.7658    4.1467   -1.4781 C   0  0  1  0  0  0  0  0  0  0  0  0
   16.4965    4.5143   -2.7623 C   0  0  0  0  0  0  0  0  0  0  0  0
   15.3051    2.6722   -1.5131 C   0  0  0  0  0  0  0  0  0  0  0  0
   12.4985    2.2517    0.8987 C   0  0  0  0  0  0  0  0  0  0  0  0
   12.8746    3.1510    1.8242 F   0  0  0  0  0  0  0  0  0  0  0  0
   11.1865    1.7624    0.9754 C   0  0  0  0  0  0  0  0  0  0  0  0
    6.5960   -0.0134    0.1360 N   0  0  0  0  0  0  0  0  0  0  0  0
    5.3010   -0.3611    0.4502 C   0  0  0  0  0  0  0  0  0  0  0  0
    4.7021    0.1660    1.3803 O   0  0  0  0  0  0  0  0  0  0  0  0
    4.7369   -1.3835   -0.4238 C   0  0  0  0  0  0  0  0  0  0  0  0
    3.4178   -1.9684   -0.4675 C   0  0  0  0  0  0  0  0  0  0  0  0
    2.2836   -1.6488    0.4543 C   0  0  0  0  0  0  0  0  0  0  0  0
    2.3243   -4.3053   -2.8071 H   0  0  0  0  0  0  0  0  0  0  0  0
    1.2905   -3.0211   -2.1701 H   0  0  0  0  0  0  0  0  0  0  0  0
    1.8152   -4.3475   -1.1128 H   0  0  0  0  0  0  0  0  0  0  0  0
    9.2886   -0.8649   -1.5937 H   0  0  0  0  0  0  0  0  0  0  0  0
    8.1374    2.0034   -1.5936 H   0  0  0  0  0  0  0  0  0  0  0  0
    7.8827    0.8643   -2.9245 H   0  0  0  0  0  0  0  0  0  0  0  0
    9.5098    1.4211   -2.5424 H   0  0  0  0  0  0  0  0  0  0  0  0
    9.4212   -0.3933    0.7876 H   0  0  0  0  0  0  0  0  0  0  0  0
   11.3027   -0.2737   -1.7298 H   0  0  0  0  0  0  0  0  0  0  0  0
   13.5286    0.5990   -1.8612 H   0  0  0  0  0  0  0  0  0  0  0  0
   16.3831    1.9738    0.9209 H   0  0  0  0  0  0  0  0  0  0  0  0
   15.0081    2.4427    1.8981 H   0  0  0  0  0  0  0  0  0  0  0  0
   15.1450    4.7925    0.9796 H   0  0  0  0  0  0  0  0  0  0  0  0
   17.8775    3.7478    1.9026 H   0  0  0  0  0  0  0  0  0  0  0  0
   16.5413    4.2056    2.9840 H   0  0  0  0  0  0  0  0  0  0  0  0
   17.3398    5.4202    1.9583 H   0  0  0  0  0  0  0  0  0  0  0  0
   14.8974    4.8087   -1.3656 H   0  0  0  0  0  0  0  0  0  0  0  0
   17.3967    3.9038   -2.8917 H   0  0  0  0  0  0  0  0  0  0  0  0
   16.8243    5.5588   -2.7311 H   0  0  0  0  0  0  0  0  0  0  0  0
   15.8521    4.3780   -3.6367 H   0  0  0  0  0  0  0  0  0  0  0  0
   16.1676    2.0124   -1.6688 H   0  0  0  0  0  0  0  0  0  0  0  0
   14.6221    2.5348   -2.3589 H   0  0  0  0  0  0  0  0  0  0  0  0
   10.5511    2.1073    1.7854 H   0  0  0  0  0  0  0  0  0  0  0  0
    7.0360    0.7022    0.7017 H   0  0  0  0  0  0  0  0  0  0  0  0
    2.5460   -0.9074    1.2103 H   0  0  0  0  0  0  0  0  0  0  0  0
    1.9606   -2.5547    0.9777 H   0  0  0  0  0  0  0  0  0  0  0  0
    1.4332   -1.2576   -0.1141 H   0  0  0  0  0  0  0  0  0  0  0  0
  1  2  1  0  0  0  0
  1 31  1  0  0  0  0
  1 32  1  0  0  0  0
  1 33  1  0  0  0  0
  2  3  1  0  0  0  0
  2 29  2  0  0  0  0
  3  4  1  0  0  0  0
  4  5  1  0  0  0  0
  4 28  2  0  0  0  0
  5  6  2  0  0  0  0
  6  7  1  0  0  0  0
  6 25  1  0  0  0  0
  7  8  1  0  0  0  0
  7  9  1  0  0  0  0
  7 34  1  6  0  0  0
  8 35  1  0  0  0  0
  8 36  1  0  0  0  0
  8 37  1  0  0  0  0
  9 10  1  0  0  0  0
  9 38  1  0  0  0  0
 10 11  1  0  0  0  0
 10 24  2  0  0  0  0
 11 12  2  0  0  0  0
 11 39  1  0  0  0  0
 12 13  1  0  0  0  0
 12 40  1  0  0  0  0
 13 14  1  0  0  0  0
 13 22  2  0  0  0  0
 14 15  1  0  0  0  0
 14 21  1  0  0  0  0
 15 16  1  0  0  0  0
 15 41  1  0  0  0  0
 15 42  1  0  0  0  0
 16 17  1  0  0  0  0
 16 18  1  0  0  0  0
 16 43  1  1  0  0  0
 17 44  1  0  0  0  0
 17 45  1  0  0  0  0
 17 46  1  0  0  0  0
 18 19  1  0  0  0  0
 19 20  1  0  0  0  0
 19 21  1  0  0  0  0
 19 47  1  1  0  0  0
 20 48  1  0  0  0  0
 20 49  1  0  0  0  0
 20 50  1  0  0  0  0
 21 51  1  0  0  0  0
 21 52  1  0  0  0  0
 22 23  1  0  0  0  0
 22 24  1  0  0  0  0
 24 53  1  0  0  0  0
 25 26  1  0  0  0  0
 25 54  1  0  0  0  0
 26 27  2  0  0  0  0
 26 28  1  0  0  0  0
 28 29  1  0  0  0  0
 29 30  1  0  0  0  0
 30 55  1  0  0  0  0
 30 56  1  0  0  0  0
 30 57  1  0  0  0  0
M  END
$$$$
