REMARK  Name = 
REMARK  5 active torsions:
REMARK  status: ('A' for Active; 'I' for Inactive)
REMARK    1  A    between atoms: C_1  and  C_2
REMARK    2  A    between atoms: N_6  and  C_7
REMARK    3  A    between atoms: N_12  and  C_13
REMARK    4  A    between atoms: C_20  and  C_21
REMARK    5  A    between atoms: C_24  and  N_25
REMARK                            x       y       z     vdW  Elec       q    Type
REMARK                         _______ _______ _______ _____ _____    ______ ____
ROOT
ATOM      1  C   UNL     1      -1.129  -1.452  -0.107  0.00  0.00    +0.000 A 
ATOM      2  N   UNL     1      -1.394  -0.603   0.937  0.00  0.00    +0.000 NA
ATOM      3  C   UNL     1      -0.650   0.517   0.978  0.00  0.00    +0.000 A 
ATOM      4  N   UNL     1       0.230   0.898   0.052  0.00  0.00    +0.000 NA
ATOM      5  C   UNL     1       0.442   0.099  -0.996  0.00  0.00    +0.000 A 
ATOM      6  N   UNL     1       1.261   0.561  -2.043  0.00  0.00    +0.000 N 
ATOM      7  C   UNL     1      -0.251  -1.127  -1.151  0.00  0.00    +0.000 A 
ATOM      8  H   UNL     1      -0.758   1.169   1.822  0.00  0.00    +0.000 HD
ATOM      9  H   UNL     1       1.716  -0.255  -2.456  0.00  0.00    +0.000 HD
ENDROOT
BRANCH   6  10
ATOM     10  C   UNL     1       2.247   1.614  -2.108  0.00  0.00    +0.000 A 
ATOM     11  C   UNL     1       2.665   1.862  -3.448  0.00  0.00    +0.000 A 
ATOM     12  C   UNL     1       3.854   2.507  -3.733  0.00  0.00    +0.000 A 
ATOM     13  C   UNL     1       4.725   2.711  -2.687  0.00  0.00    +0.000 A 
ATOM     14  C   UNL     1       4.308   2.466  -1.384  0.00  0.00    +0.000 A 
ATOM     15  C   UNL     1       5.271   2.550  -0.402  0.00  0.00    +0.000 A 
ATOM     16  C   UNL     1       4.945   3.431   0.584  0.00  0.00    +0.000 A 
ATOM     17  C   UNL     1       3.620   3.426   0.964  0.00  0.00    +0.000 A 
ATOM     18  N   UNL     1       2.669   2.678   0.280  0.00  0.00    +0.000 NA
ATOM     19  C   UNL     1       2.990   2.215  -1.012  0.00  0.00    +0.000 A 
ATOM     20  H   UNL     1       2.056   1.518  -4.282  0.00  0.00    +0.000 HD
ATOM     21  H   UNL     1       4.149   2.756  -4.748  0.00  0.00    +0.000 HD
ATOM     22  H   UNL     1       5.723   3.106  -2.870  0.00  0.00    +0.000 HD
ATOM     23  H   UNL     1       5.375   1.544   0.081  0.00  0.00    +0.000 HD
ATOM     24  H   UNL     1       5.702   4.065   1.025  0.00  0.00    +0.000 HD
BRANCH  17  25
ATOM     25  C   UNL     1       3.288   4.404   2.066  0.00  0.00    +0.000 C 
ATOM     26  H   UNL     1       2.392   4.137   2.622  0.00  0.00    +0.000 HD
ATOM     27  H   UNL     1       3.187   5.415   1.649  0.00  0.00    +0.000 HD
ATOM     28  H   UNL     1       4.124   4.450   2.782  0.00  0.00    +0.000 HD
ENDBRANCH  17  25
ENDBRANCH   6  10
BRANCH   1  33
ATOM     29  C   UNL     1      -5.376  -3.193   2.083  0.00  0.00    +0.000 A 
ATOM     30  C   UNL     1      -4.876  -4.266   1.341  0.00  0.00    +0.000 A 
ATOM     31  C   UNL     1      -3.698  -4.122   0.601  0.00  0.00    +0.000 A 
ATOM     32  C   UNL     1      -3.007  -2.911   0.633  0.00  0.00    +0.000 A 
ATOM     33  N   UNL     1      -1.883  -2.655  -0.162  0.00  0.00    +0.000 N 
ATOM     34  N   UNL     1      -3.538  -1.907   1.351  0.00  0.00    +0.000 N 
ATOM     35  C   UNL     1      -4.670  -1.996   2.055  0.00  0.00    +0.000 A 
ATOM     36  H   UNL     1      -5.406  -5.219   1.326  0.00  0.00    +0.000 HD
ATOM     37  H   UNL     1      -3.338  -4.955   0.004  0.00  0.00    +0.000 HD
ATOM     38  H   UNL     1      -1.252  -3.451  -0.269  0.00  0.00    +0.000 HD
ATOM     39  H   UNL     1      -2.996  -1.034   1.344  0.00  0.00    +0.000 HD
ATOM     40  H   UNL     1      -4.984  -1.098   2.577  0.00  0.00    +0.000 HD
BRANCH  29  41
ATOM     41  C   UNL     1      -6.637  -3.307   2.888  0.00  0.00    +0.000 C 
ATOM     42  H   UNL     1      -7.044  -4.323   2.857  0.00  0.00    +0.000 HD
ATOM     43  H   UNL     1      -7.400  -2.625   2.499  0.00  0.00    +0.000 HD
ATOM     44  H   UNL     1      -6.438  -3.061   3.936  0.00  0.00    +0.000 HD
ENDBRANCH  29  41
ENDBRANCH   1  33
BRANCH   7  45
ATOM     45  N   UNL     1       0.070  -2.089  -2.142  0.00  0.00    +0.000 N 
ATOM     46  H   UNL     1       0.392  -1.688  -3.018  0.00  0.00    +0.000 HD
ATOM     47  H   UNL     1      -0.675  -2.757  -2.321  0.00  0.00    +0.000 HD
ENDBRANCH   7  45
TORSDOF 5
