MODEL 1
REMARK VINA RESULT:    -8.245      0.000      0.000
REMARK INTER + INTRA:         -10.280
REMARK INTER:                 -10.655
REMARK INTRA:                   0.376
REMARK UNBOUND:                 0.376
REMARK  Name = 
REMARK  7 active torsions:
REMARK  status: ('A' for Active; 'I' for Inactive)
REMARK    1  A    between atoms: C_1  and  C_2
REMARK    2  A    between atoms: C_11  and  C_12
REMARK    3  A    between atoms: N_14  and  C_15
REMARK    4  A    between atoms: C_19  and  C_20
REMARK    5  A    between atoms: C_20  and  C_21
REMARK    6  A    between atoms: C_20  and  C_22
REMARK    7  A    between atoms: C_20  and  C_23
REMARK                            x       y       z     vdW  Elec       q    Type
REMARK                         _______ _______ _______ _____ _____    ______ ____
ROOT
ATOM      1  C   UNL     1      -7.779  -4.402  19.968  0.00  0.00    +0.000 A 
ATOM      2  C   UNL     1      -6.555  -4.025  20.539  0.00  0.00    +0.000 A 
ATOM      3  C   UNL     1      -6.496  -3.408  21.791  0.00  0.00    +0.000 A 
ATOM      4  C   UNL     1      -7.676  -3.025  22.400  0.00  0.00    +0.000 A 
ATOM      5  C   UNL     1      -7.808  -2.223  23.647  0.00  0.00    +0.000 A 
ATOM      6  C   UNL     1      -7.714  -0.940  23.238  0.00  0.00    +0.000 A 
ATOM      7  C   UNL     1      -8.952  -0.634  22.394  0.00  0.00    +0.000 A 
ATOM      8  O   UNL     1      -9.391   0.499  22.355  0.00  0.00    +0.000 OA
ATOM      9  N   UNL     1      -9.466  -1.687  21.649  0.00  0.00    +0.000 N 
ATOM     10  C   UNL     1      -8.766  -2.911  21.532  0.00  0.00    +0.000 A 
ATOM     11  C   UNL     1      -8.924  -3.764  20.441  0.00  0.00    +0.000 A 
ATOM     12  H   UNL     1      -5.616  -4.192  20.023  0.00  0.00    +0.000 HD
ATOM     13  H   UNL     1      -5.525  -3.158  22.211  0.00  0.00    +0.000 HD
ATOM     14  H   UNL     1      -6.857  -0.613  22.647  0.00  0.00    +0.000 HD
ATOM     15  H   UNL     1     -10.220  -1.452  21.005  0.00  0.00    +0.000 HD
ATOM     16  H   UNL     1      -9.879  -3.840  19.937  0.00  0.00    +0.000 HD
ENDROOT
BRANCH   1  19
ATOM     17  C   UNL     1      -8.376  -6.649  19.100  0.00  0.00    +0.000 C 
ATOM     18  O   UNL     1      -8.693  -7.136  20.187  0.00  0.00    +0.000 OA
ATOM     19  N   UNL     1      -7.852  -5.368  18.927  0.00  0.00    +0.000 N 
ATOM     20  H   UNL     1      -7.731  -5.045  17.972  0.00  0.00    +0.000 HD
BRANCH  17  30
ATOM     21  C   UNL     1      -9.792  -8.295  17.842  0.00  0.00    +0.000 C 
ATOM     22  O   UNL     1     -10.912  -7.424  17.611  0.00  0.00    +0.000 OA
ATOM     23  C   UNL     1     -10.660  -6.469  16.662  0.00  0.00    +0.000 A 
ATOM     24  C   UNL     1     -11.763  -5.762  16.190  0.00  0.00    +0.000 A 
ATOM     25  C   UNL     1     -11.603  -4.830  15.166  0.00  0.00    +0.000 A 
ATOM     26  C   UNL     1     -10.341  -4.612  14.612  0.00  0.00    +0.000 A 
ATOM     27  C   UNL     1      -9.231  -5.299  15.108  0.00  0.00    +0.000 A 
ATOM     28  C   UNL     1      -9.388  -6.208  16.157  0.00  0.00    +0.000 A 
ATOM     29  O   UNL     1      -8.246  -6.804  16.617  0.00  0.00    +0.000 OA
ATOM     30  C   UNL     1      -8.458  -7.517  17.831  0.00  0.00    +0.000 C 
ATOM     31  H   UNL     1      -9.956  -8.742  18.831  0.00  0.00    +0.000 HD
ATOM     32  H   UNL     1     -12.748  -5.946  16.611  0.00  0.00    +0.000 HD
ATOM     33  H   UNL     1     -12.464  -4.285  14.788  0.00  0.00    +0.000 HD
ATOM     34  H   UNL     1     -10.219  -3.902  13.798  0.00  0.00    +0.000 HD
ATOM     35  H   UNL     1      -8.249  -5.128  14.679  0.00  0.00    +0.000 HD
ATOM     36  H   UNL     1      -7.635  -8.237  17.925  0.00  0.00    +0.000 HD
BRANCH  21  37
ATOM     37  C   UNL     1      -9.842  -9.447  16.841  0.00  0.00    +0.000 C 
ATOM     38  H   UNL     1      -9.420 -10.350  17.297  0.00  0.00    +0.000 HD
ATOM     39  H   UNL     1      -9.265  -9.212  15.942  0.00  0.00    +0.000 HD
ATOM     40  H   UNL     1     -10.866  -9.695  16.550  0.00  0.00    +0.000 HD
ENDBRANCH  21  37
ENDBRANCH  17  30
ENDBRANCH   1  19
BRANCH   5  41
ATOM     41  C   UNL     1      -8.882  -2.614  24.737  0.00  0.00    +0.000 C 
BRANCH  41  42
ATOM     42  C   UNL     1      -8.467  -3.897  25.484  0.00  0.00    +0.000 C 
ATOM     43  H   UNL     1      -7.511  -3.778  26.003  0.00  0.00    +0.000 HD
ATOM     44  H   UNL     1      -8.393  -4.754  24.808  0.00  0.00    +0.000 HD
ATOM     45  H   UNL     1      -9.217  -4.157  26.247  0.00  0.00    +0.000 HD
ENDBRANCH  41  42
BRANCH  41  46
ATOM     46  C   UNL     1      -8.979  -1.484  25.801  0.00  0.00    +0.000 C 
ATOM     47  H   UNL     1      -8.726  -1.850  26.801  0.00  0.00    +0.000 HD
ATOM     48  H   UNL     1      -9.990  -1.064  25.844  0.00  0.00    +0.000 HD
ATOM     49  H   UNL     1      -8.308  -0.647  25.567  0.00  0.00    +0.000 HD
ENDBRANCH  41  46
BRANCH  41  50
ATOM     50  C   UNL     1     -10.337  -2.844  24.244  0.00  0.00    +0.000 C 
ATOM     51  H   UNL     1     -10.593  -3.906  24.173  0.00  0.00    +0.000 HD
ATOM     52  H   UNL     1     -10.524  -2.367  23.276  0.00  0.00    +0.000 HD
ATOM     53  H   UNL     1     -11.063  -2.396  24.933  0.00  0.00    +0.000 HD
ENDBRANCH  41  50
ENDBRANCH   5  41
TORSDOF 7
ENDMDL
MODEL 2
REMARK VINA RESULT:    -8.218      2.017      3.366
REMARK INTER + INTRA:         -10.245
REMARK INTER:                 -10.753
REMARK INTRA:                   0.508
REMARK UNBOUND:                 0.376
REMARK  Name = 
REMARK  7 active torsions:
REMARK  status: ('A' for Active; 'I' for Inactive)
REMARK    1  A    between atoms: C_1  and  C_2
REMARK    2  A    between atoms: C_11  and  C_12
REMARK    3  A    between atoms: N_14  and  C_15
REMARK    4  A    between atoms: C_19  and  C_20
REMARK    5  A    between atoms: C_20  and  C_21
REMARK    6  A    between atoms: C_20  and  C_22
REMARK    7  A    between atoms: C_20  and  C_23
REMARK                            x       y       z     vdW  Elec       q    Type
REMARK                         _______ _______ _______ _____ _____    ______ ____
ROOT
ATOM      1  C   UNL     1     -10.561  -2.595  19.895  0.00  0.00    +0.000 A 
ATOM      2  C   UNL     1      -9.161  -2.520  19.933  0.00  0.00    +0.000 A 
ATOM      3  C   UNL     1      -8.477  -2.321  21.135  0.00  0.00    +0.000 A 
ATOM      4  C   UNL     1      -9.204  -2.041  22.276  0.00  0.00    +0.000 A 
ATOM      5  C   UNL     1      -8.652  -1.649  23.602  0.00  0.00    +0.000 A 
ATOM      6  C   UNL     1      -8.461  -0.316  23.511  0.00  0.00    +0.000 A 
ATOM      7  C   UNL     1      -9.839   0.340  23.404  0.00  0.00    +0.000 A 
ATOM      8  O   UNL     1     -10.006   1.465  23.834  0.00  0.00    +0.000 OA
ATOM      9  N   UNL     1     -10.818  -0.387  22.740  0.00  0.00    +0.000 N 
ATOM     10  C   UNL     1     -10.499  -1.572  22.037  0.00  0.00    +0.000 A 
ATOM     11  C   UNL     1     -11.257  -2.034  20.963  0.00  0.00    +0.000 A 
ATOM     12  H   UNL     1      -8.566  -2.602  19.030  0.00  0.00    +0.000 HD
ATOM     13  H   UNL     1      -7.390  -2.298  21.125  0.00  0.00    +0.000 HD
ATOM     14  H   UNL     1      -7.865   0.099  22.697  0.00  0.00    +0.000 HD
ATOM     15  H   UNL     1     -11.699   0.099  22.574  0.00  0.00    +0.000 HD
ATOM     16  H   UNL     1     -12.327  -1.869  20.934  0.00  0.00    +0.000 HD
ENDROOT
BRANCH   1  19
ATOM     17  C   UNL     1     -10.963  -2.899  17.465  0.00  0.00    +0.000 C 
ATOM     18  O   UNL     1     -10.202  -2.006  17.087  0.00  0.00    +0.000 OA
ATOM     19  N   UNL     1     -11.248  -3.187  18.799  0.00  0.00    +0.000 N 
ATOM     20  H   UNL     1     -11.807  -4.016  18.982  0.00  0.00    +0.000 HD
BRANCH  17  30
ATOM     21  C   UNL     1     -10.969  -3.702  15.087  0.00  0.00    +0.000 C 
ATOM     22  O   UNL     1      -9.776  -4.499  15.166  0.00  0.00    +0.000 OA
ATOM     23  C   UNL     1      -9.955  -5.662  15.868  0.00  0.00    +0.000 A 
ATOM     24  C   UNL     1      -8.937  -6.606  15.767  0.00  0.00    +0.000 A 
ATOM     25  C   UNL     1      -9.080  -7.848  16.385  0.00  0.00    +0.000 A 
ATOM     26  C   UNL     1     -10.242  -8.143  17.097  0.00  0.00    +0.000 A 
ATOM     27  C   UNL     1     -11.249  -7.182  17.224  0.00  0.00    +0.000 A 
ATOM     28  C   UNL     1     -11.090  -5.928  16.632  0.00  0.00    +0.000 A 
ATOM     29  O   UNL     1     -12.099  -5.028  16.842  0.00  0.00    +0.000 OA
ATOM     30  C   UNL     1     -11.748  -3.714  16.419  0.00  0.00    +0.000 C 
ATOM     31  H   UNL     1     -10.636  -2.681  14.858  0.00  0.00    +0.000 HD
ATOM     32  H   UNL     1      -8.040  -6.380  15.197  0.00  0.00    +0.000 HD
ATOM     33  H   UNL     1      -8.291  -8.591  16.298  0.00  0.00    +0.000 HD
ATOM     34  H   UNL     1     -10.364  -9.119  17.560  0.00  0.00    +0.000 HD
ATOM     35  H   UNL     1     -12.152  -7.412  17.780  0.00  0.00    +0.000 HD
ATOM     36  H   UNL     1     -12.688  -3.165  16.279  0.00  0.00    +0.000 HD
BRANCH  21  37
ATOM     37  C   UNL     1     -11.795  -4.159  13.887  0.00  0.00    +0.000 C 
ATOM     38  H   UNL     1     -11.156  -4.711  13.187  0.00  0.00    +0.000 HD
ATOM     39  H   UNL     1     -12.228  -3.305  13.358  0.00  0.00    +0.000 HD
ATOM     40  H   UNL     1     -12.600  -4.841  14.176  0.00  0.00    +0.000 HD
ENDBRANCH  21  37
ENDBRANCH  17  30
ENDBRANCH   1  19
BRANCH   5  41
ATOM     41  C   UNL     1      -9.256  -2.259  24.928  0.00  0.00    +0.000 C 
BRANCH  41  42
ATOM     42  C   UNL     1      -8.513  -3.548  25.330  0.00  0.00    +0.000 C 
ATOM     43  H   UNL     1      -7.755  -3.831  24.592  0.00  0.00    +0.000 HD
ATOM     44  H   UNL     1      -9.202  -4.389  25.463  0.00  0.00    +0.000 HD
ATOM     45  H   UNL     1      -7.992  -3.408  26.289  0.00  0.00    +0.000 HD
ENDBRANCH  41  42
BRANCH  41  46
ATOM     46  C   UNL     1      -9.070  -1.248  26.096  0.00  0.00    +0.000 C 
ATOM     47  H   UNL     1      -8.250  -0.550  25.897  0.00  0.00    +0.000 HD
ATOM     48  H   UNL     1      -8.848  -1.765  27.037  0.00  0.00    +0.000 HD
ATOM     49  H   UNL     1      -9.980  -0.661  26.274  0.00  0.00    +0.000 HD
ENDBRANCH  41  46
BRANCH  41  50
ATOM     50  C   UNL     1     -10.769  -2.608  24.920  0.00  0.00    +0.000 C 
ATOM     51  H   UNL     1     -11.388  -1.786  24.546  0.00  0.00    +0.000 HD
ATOM     52  H   UNL     1     -11.129  -2.904  25.911  0.00  0.00    +0.000 HD
ATOM     53  H   UNL     1     -10.972  -3.468  24.270  0.00  0.00    +0.000 HD
ENDBRANCH  41  50
ENDBRANCH   5  41
TORSDOF 7
ENDMDL
MODEL 3
REMARK VINA RESULT:    -8.213      2.240      8.451
REMARK INTER + INTRA:         -10.238
REMARK INTER:                 -10.297
REMARK INTRA:                   0.059
REMARK UNBOUND:                 0.376
REMARK  Name = 
REMARK  7 active torsions:
REMARK  status: ('A' for Active; 'I' for Inactive)
REMARK    1  A    between atoms: C_1  and  C_2
REMARK    2  A    between atoms: C_11  and  C_12
REMARK    3  A    between atoms: N_14  and  C_15
REMARK    4  A    between atoms: C_19  and  C_20
REMARK    5  A    between atoms: C_20  and  C_21
REMARK    6  A    between atoms: C_20  and  C_22
REMARK    7  A    between atoms: C_20  and  C_23
REMARK                            x       y       z     vdW  Elec       q    Type
REMARK                         _______ _______ _______ _____ _____    ______ ____
ROOT
ATOM      1  C   UNL     1      -9.661  -5.649  17.806  0.00  0.00    +0.000 A 
ATOM      2  C   UNL     1     -10.951  -6.190  17.898  0.00  0.00    +0.000 A 
ATOM      3  C   UNL     1     -11.185  -7.551  17.682  0.00  0.00    +0.000 A 
ATOM      4  C   UNL     1     -10.149  -8.339  17.218  0.00  0.00    +0.000 A 
ATOM      5  C   UNL     1     -10.245  -9.760  16.784  0.00  0.00    +0.000 A 
ATOM      6  C   UNL     1     -10.647  -9.696  15.497  0.00  0.00    +0.000 A 
ATOM      7  C   UNL     1      -9.508  -9.072  14.689  0.00  0.00    +0.000 A 
ATOM      8  O   UNL     1      -9.363  -9.371  13.519  0.00  0.00    +0.000 OA
ATOM      9  N   UNL     1      -8.733  -8.124  15.345  0.00  0.00    +0.000 N 
ATOM     10  C   UNL     1      -9.106  -7.629  16.617  0.00  0.00    +0.000 A 
ATOM     11  C   UNL     1      -8.720  -6.370  17.074  0.00  0.00    +0.000 A 
ATOM     12  H   UNL     1     -11.809  -5.569  18.130  0.00  0.00    +0.000 HD
ATOM     13  H   UNL     1     -12.196  -7.936  17.793  0.00  0.00    +0.000 HD
ATOM     14  H   UNL     1     -11.546  -9.140  15.229  0.00  0.00    +0.000 HD
ATOM     15  H   UNL     1      -8.050  -7.632  14.772  0.00  0.00    +0.000 HD
ATOM     16  H   UNL     1      -7.766  -5.948  16.782  0.00  0.00    +0.000 HD
ENDROOT
BRANCH   1  19
ATOM     17  C   UNL     1      -8.633  -4.281  19.603  0.00  0.00    +0.000 C 
ATOM     18  O   UNL     1      -8.358  -5.222  20.351  0.00  0.00    +0.000 OA
ATOM     19  N   UNL     1      -9.330  -4.401  18.402  0.00  0.00    +0.000 N 
ATOM     20  H   UNL     1      -9.400  -3.567  17.825  0.00  0.00    +0.000 HD
BRANCH  17  30
ATOM     21  C   UNL     1      -9.471  -1.917  19.700  0.00  0.00    +0.000 C 
ATOM     22  O   UNL     1     -10.595  -2.162  20.561  0.00  0.00    +0.000 OA
ATOM     23  C   UNL     1     -10.231  -2.398  21.861  0.00  0.00    +0.000 A 
ATOM     24  C   UNL     1     -11.258  -2.381  22.801  0.00  0.00    +0.000 A 
ATOM     25  C   UNL     1     -10.961  -2.531  24.155  0.00  0.00    +0.000 A 
ATOM     26  C   UNL     1      -9.637  -2.692  24.565  0.00  0.00    +0.000 A 
ATOM     27  C   UNL     1      -8.612  -2.741  23.617  0.00  0.00    +0.000 A 
ATOM     28  C   UNL     1      -8.915  -2.624  22.259  0.00  0.00    +0.000 A 
ATOM     29  O   UNL     1      -7.862  -2.729  21.393  0.00  0.00    +0.000 OA
ATOM     30  C   UNL     1      -8.284  -2.846  20.038  0.00  0.00    +0.000 C 
ATOM     31  H   UNL     1      -9.823  -2.117  18.679  0.00  0.00    +0.000 HD
ATOM     32  H   UNL     1     -12.287  -2.238  22.481  0.00  0.00    +0.000 HD
ATOM     33  H   UNL     1     -11.759  -2.505  24.892  0.00  0.00    +0.000 HD
ATOM     34  H   UNL     1      -9.402  -2.785  25.622  0.00  0.00    +0.000 HD
ATOM     35  H   UNL     1      -7.582  -2.869  23.936  0.00  0.00    +0.000 HD
ATOM     36  H   UNL     1      -7.429  -2.560  19.413  0.00  0.00    +0.000 HD
BRANCH  21  37
ATOM     37  C   UNL     1      -9.122  -0.431  19.746  0.00  0.00    +0.000 C 
ATOM     38  H   UNL     1      -9.044  -0.103  20.789  0.00  0.00    +0.000 HD
ATOM     39  H   UNL     1      -9.891   0.169  19.252  0.00  0.00    +0.000 HD
ATOM     40  H   UNL     1      -8.155  -0.221  19.281  0.00  0.00    +0.000 HD
ENDBRANCH  21  37
ENDBRANCH  17  30
ENDBRANCH   1  19
BRANCH   5  41
ATOM     41  C   UNL     1      -9.128 -10.797  17.199  0.00  0.00    +0.000 C 
BRANCH  41  42
ATOM     42  C   UNL     1      -8.329 -10.290  18.416  0.00  0.00    +0.000 C 
ATOM     43  H   UNL     1      -7.600  -9.522  18.135  0.00  0.00    +0.000 HD
ATOM     44  H   UNL     1      -7.802 -11.104  18.923  0.00  0.00    +0.000 HD
ATOM     45  H   UNL     1      -9.005  -9.837  19.157  0.00  0.00    +0.000 HD
ENDBRANCH  41  42
BRANCH  41  46
ATOM     46  C   UNL     1      -9.796 -12.136  17.623  0.00  0.00    +0.000 C 
ATOM     47  H   UNL     1      -9.530 -12.952  16.943  0.00  0.00    +0.000 HD
ATOM     48  H   UNL     1     -10.888 -12.050  17.632  0.00  0.00    +0.000 HD
ATOM     49  H   UNL     1      -9.503 -12.433  18.639  0.00  0.00    +0.000 HD
ENDBRANCH  41  46
BRANCH  41  50
ATOM     50  C   UNL     1      -8.083 -11.180  16.116  0.00  0.00    +0.000 C 
ATOM     51  H   UNL     1      -7.927 -10.383  15.382  0.00  0.00    +0.000 HD
ATOM     52  H   UNL     1      -8.355 -12.101  15.589  0.00  0.00    +0.000 HD
ATOM     53  H   UNL     1      -7.104 -11.383  16.566  0.00  0.00    +0.000 HD
ENDBRANCH  41  50
ENDBRANCH   5  41
TORSDOF 7
ENDMDL
MODEL 4
REMARK VINA RESULT:    -7.872      4.722      8.578
REMARK INTER + INTRA:          -9.798
REMARK INTER:                  -9.927
REMARK INTRA:                   0.129
REMARK UNBOUND:                 0.376
REMARK  Name = 
REMARK  7 active torsions:
REMARK  status: ('A' for Active; 'I' for Inactive)
REMARK    1  A    between atoms: C_1  and  C_2
REMARK    2  A    between atoms: C_11  and  C_12
REMARK    3  A    between atoms: N_14  and  C_15
REMARK    4  A    between atoms: C_19  and  C_20
REMARK    5  A    between atoms: C_20  and  C_21
REMARK    6  A    between atoms: C_20  and  C_22
REMARK    7  A    between atoms: C_20  and  C_23
REMARK                            x       y       z     vdW  Elec       q    Type
REMARK                         _______ _______ _______ _____ _____    ______ ____
ROOT
ATOM      1  C   UNL     1     -10.843  -3.698  14.639  0.00  0.00    +0.000 A 
ATOM      2  C   UNL     1     -11.791  -4.313  13.808  0.00  0.00    +0.000 A 
ATOM      3  C   UNL     1     -12.325  -3.650  12.700  0.00  0.00    +0.000 A 
ATOM      4  C   UNL     1     -12.027  -2.314  12.517  0.00  0.00    +0.000 A 
ATOM      5  C   UNL     1     -12.621  -1.407  11.496  0.00  0.00    +0.000 A 
ATOM      6  C   UNL     1     -13.773  -0.977  12.052  0.00  0.00    +0.000 A 
ATOM      7  C   UNL     1     -13.406  -0.098  13.250  0.00  0.00    +0.000 A 
ATOM      8  O   UNL     1     -14.146   0.807  13.584  0.00  0.00    +0.000 OA
ATOM      9  N   UNL     1     -12.253  -0.448  13.940  0.00  0.00    +0.000 N 
ATOM     10  C   UNL     1     -11.574  -1.659  13.666  0.00  0.00    +0.000 A 
ATOM     11  C   UNL     1     -10.784  -2.306  14.614  0.00  0.00    +0.000 A 
ATOM     12  H   UNL     1     -12.146  -5.319  14.005  0.00  0.00    +0.000 HD
ATOM     13  H   UNL     1     -13.035  -4.174  12.065  0.00  0.00    +0.000 HD
ATOM     14  H   UNL     1     -14.509  -1.694  12.418  0.00  0.00    +0.000 HD
ATOM     15  H   UNL     1     -12.074   0.069  14.800  0.00  0.00    +0.000 HD
ATOM     16  H   UNL     1     -10.232  -1.737  15.351  0.00  0.00    +0.000 HD
ENDROOT
BRANCH   1  19
ATOM     17  C   UNL     1     -10.406  -4.951  16.736  0.00  0.00    +0.000 C 
ATOM     18  O   UNL     1     -11.473  -4.673  17.287  0.00  0.00    +0.000 OA
ATOM     19  N   UNL     1     -10.000  -4.455  15.498  0.00  0.00    +0.000 N 
ATOM     20  H   UNL     1      -9.147  -4.843  15.104  0.00  0.00    +0.000 HD
BRANCH  17  30
ATOM     21  C   UNL     1     -10.126  -6.718  18.497  0.00  0.00    +0.000 C 
ATOM     22  O   UNL     1     -10.892  -7.743  17.842  0.00  0.00    +0.000 OA
ATOM     23  C   UNL     1     -10.242  -8.293  16.769  0.00  0.00    +0.000 A 
ATOM     24  C   UNL     1     -10.792  -9.461  16.248  0.00  0.00    +0.000 A 
ATOM     25  C   UNL     1     -10.146 -10.128  15.208  0.00  0.00    +0.000 A 
ATOM     26  C   UNL     1      -8.949  -9.627  14.696  0.00  0.00    +0.000 A 
ATOM     27  C   UNL     1      -8.415  -8.438  15.199  0.00  0.00    +0.000 A 
ATOM     28  C   UNL     1      -9.081  -7.754  16.218  0.00  0.00    +0.000 A 
ATOM     29  O   UNL     1      -8.519  -6.574  16.622  0.00  0.00    +0.000 OA
ATOM     30  C   UNL     1      -9.381  -5.829  17.477  0.00  0.00    +0.000 C 
ATOM     31  H   UNL     1     -10.849  -6.114  19.060  0.00  0.00    +0.000 HD
ATOM     32  H   UNL     1     -11.717  -9.858  16.660  0.00  0.00    +0.000 HD
ATOM     33  H   UNL     1     -10.568 -11.046  14.807  0.00  0.00    +0.000 HD
ATOM     34  H   UNL     1      -8.432 -10.159  13.901  0.00  0.00    +0.000 HD
ATOM     35  H   UNL     1      -7.485  -8.048  14.799  0.00  0.00    +0.000 HD
ATOM     36  H   UNL     1      -8.747  -5.123  18.028  0.00  0.00    +0.000 HD
BRANCH  21  37
ATOM     37  C   UNL     1      -9.211  -7.365  19.534  0.00  0.00    +0.000 C 
ATOM     38  H   UNL     1      -8.798  -8.297  19.131  0.00  0.00    +0.000 HD
ATOM     39  H   UNL     1      -9.759  -7.597  20.452  0.00  0.00    +0.000 HD
ATOM     40  H   UNL     1      -8.357  -6.729  19.783  0.00  0.00    +0.000 HD
ENDBRANCH  21  37
ENDBRANCH  17  30
ENDBRANCH   1  19
BRANCH   5  41
ATOM     41  C   UNL     1     -11.707  -0.386  10.710  0.00  0.00    +0.000 C 
BRANCH  41  42
ATOM     42  C   UNL     1     -10.217  -0.629  11.018  0.00  0.00    +0.000 C 
ATOM     43  H   UNL     1      -9.728  -1.216  10.234  0.00  0.00    +0.000 HD
ATOM     44  H   UNL     1     -10.079  -1.141  11.975  0.00  0.00    +0.000 HD
ATOM     45  H   UNL     1      -9.678   0.328  11.087  0.00  0.00    +0.000 HD
ENDBRANCH  41  42
BRANCH  41  46
ATOM     46  C   UNL     1     -11.893  -0.595   9.180  0.00  0.00    +0.000 C 
ATOM     47  H   UNL     1     -12.384   0.265   8.713  0.00  0.00    +0.000 HD
ATOM     48  H   UNL     1     -12.503  -1.481   8.971  0.00  0.00    +0.000 HD
ATOM     49  H   UNL     1     -10.934  -0.756   8.672  0.00  0.00    +0.000 HD
ENDBRANCH  41  46
BRANCH  41  50
ATOM     50  C   UNL     1     -11.966   1.126  10.956  0.00  0.00    +0.000 C 
ATOM     51  H   UNL     1     -12.578   1.308  11.844  0.00  0.00    +0.000 HD
ATOM     52  H   UNL     1     -12.436   1.609  10.092  0.00  0.00    +0.000 HD
ATOM     53  H   UNL     1     -11.025   1.666  11.112  0.00  0.00    +0.000 HD
ENDBRANCH  41  50
ENDBRANCH   5  41
TORSDOF 7
ENDMDL
MODEL 5
REMARK VINA RESULT:    -7.687      3.881      8.506
REMARK INTER + INTRA:          -9.558
REMARK INTER:                  -9.929
REMARK INTRA:                   0.371
REMARK UNBOUND:                 0.376
REMARK  Name = 
REMARK  7 active torsions:
REMARK  status: ('A' for Active; 'I' for Inactive)
REMARK    1  A    between atoms: C_1  and  C_2
REMARK    2  A    between atoms: C_11  and  C_12
REMARK    3  A    between atoms: N_14  and  C_15
REMARK    4  A    between atoms: C_19  and  C_20
REMARK    5  A    between atoms: C_20  and  C_21
REMARK    6  A    between atoms: C_20  and  C_22
REMARK    7  A    between atoms: C_20  and  C_23
REMARK                            x       y       z     vdW  Elec       q    Type
REMARK                         _______ _______ _______ _____ _____    ______ ____
ROOT
ATOM      1  C   UNL     1     -10.218  -4.039  14.954  0.00  0.00    +0.000 A 
ATOM      2  C   UNL     1     -10.358  -2.762  15.516  0.00  0.00    +0.000 A 
ATOM      3  C   UNL     1     -10.965  -1.720  14.810  0.00  0.00    +0.000 A 
ATOM      4  C   UNL     1     -11.288  -1.916  13.481  0.00  0.00    +0.000 A 
ATOM      5  C   UNL     1     -11.790  -0.885  12.531  0.00  0.00    +0.000 A 
ATOM      6  C   UNL     1     -10.677  -0.275  12.072  0.00  0.00    +0.000 A 
ATOM      7  C   UNL     1      -9.905  -1.296  11.234  0.00  0.00    +0.000 A 
ATOM      8  O   UNL     1      -9.211  -0.917  10.311  0.00  0.00    +0.000 OA
ATOM      9  N   UNL     1      -9.996  -2.621  11.640  0.00  0.00    +0.000 N 
ATOM     10  C   UNL     1     -10.605  -2.970  12.868  0.00  0.00    +0.000 A 
ATOM     11  C   UNL     1     -10.276  -4.131  13.565  0.00  0.00    +0.000 A 
ATOM     12  H   UNL     1      -9.991  -2.540  16.512  0.00  0.00    +0.000 HD
ATOM     13  H   UNL     1     -11.080  -0.753  15.293  0.00  0.00    +0.000 HD
ATOM     14  H   UNL     1      -9.955   0.150  12.770  0.00  0.00    +0.000 HD
ATOM     15  H   UNL     1      -9.393  -3.280  11.149  0.00  0.00    +0.000 HD
ATOM     16  H   UNL     1      -9.987  -5.029  13.032  0.00  0.00    +0.000 HD
ENDROOT
BRANCH   1  19
ATOM     17  C   UNL     1     -10.938  -5.709  16.642  0.00  0.00    +0.000 C 
ATOM     18  O   UNL     1     -12.002  -5.160  16.933  0.00  0.00    +0.000 OA
ATOM     19  N   UNL     1      -9.992  -5.189  15.759  0.00  0.00    +0.000 N 
ATOM     20  H   UNL     1      -9.206  -5.787  15.521  0.00  0.00    +0.000 HD
BRANCH  17  30
ATOM     21  C   UNL     1      -9.504  -7.764  16.492  0.00  0.00    +0.000 C 
ATOM     22  O   UNL     1      -8.232  -7.093  16.500  0.00  0.00    +0.000 OA
ATOM     23  C   UNL     1      -7.899  -6.592  17.731  0.00  0.00    +0.000 A 
ATOM     24  C   UNL     1      -6.583  -6.168  17.889  0.00  0.00    +0.000 A 
ATOM     25  C   UNL     1      -6.143  -5.722  19.134  0.00  0.00    +0.000 A 
ATOM     26  C   UNL     1      -7.019  -5.706  20.219  0.00  0.00    +0.000 A 
ATOM     27  C   UNL     1      -8.348  -6.104  20.051  0.00  0.00    +0.000 A 
ATOM     28  C   UNL     1      -8.796  -6.518  18.795  0.00  0.00    +0.000 A 
ATOM     29  O   UNL     1     -10.121  -6.846  18.703  0.00  0.00    +0.000 OA
ATOM     30  C   UNL     1     -10.544  -7.017  17.354  0.00  0.00    +0.000 C 
ATOM     31  H   UNL     1      -9.830  -7.780  15.444  0.00  0.00    +0.000 HD
ATOM     32  H   UNL     1      -5.897  -6.197  17.045  0.00  0.00    +0.000 HD
ATOM     33  H   UNL     1      -5.112  -5.400  19.262  0.00  0.00    +0.000 HD
ATOM     34  H   UNL     1      -6.671  -5.381  21.196  0.00  0.00    +0.000 HD
ATOM     35  H   UNL     1      -9.030  -6.089  20.895  0.00  0.00    +0.000 HD
ATOM     36  H   UNL     1     -11.464  -7.613  17.383  0.00  0.00    +0.000 HD
BRANCH  21  37
ATOM     37  C   UNL     1      -9.301  -9.222  16.897  0.00  0.00    +0.000 C 
ATOM     38  H   UNL     1      -9.481  -9.334  17.973  0.00  0.00    +0.000 HD
ATOM     39  H   UNL     1      -8.280  -9.552  16.682  0.00  0.00    +0.000 HD
ATOM     40  H   UNL     1     -10.004  -9.891  16.393  0.00  0.00    +0.000 HD
ENDBRANCH  21  37
ENDBRANCH  17  30
ENDBRANCH   1  19
BRANCH   5  41
ATOM     41  C   UNL     1     -12.960  -1.229  11.526  0.00  0.00    +0.000 C 
BRANCH  41  42
ATOM     42  C   UNL     1     -13.340  -2.720  11.613  0.00  0.00    +0.000 C 
ATOM     43  H   UNL     1     -13.725  -2.988  12.603  0.00  0.00    +0.000 HD
ATOM     44  H   UNL     1     -12.490  -3.370  11.382  0.00  0.00    +0.000 HD
ATOM     45  H   UNL     1     -14.131  -2.958  10.885  0.00  0.00    +0.000 HD
ENDBRANCH  41  42
BRANCH  41  46
ATOM     46  C   UNL     1     -14.229  -0.416  11.909  0.00  0.00    +0.000 C 
ATOM     47  H   UNL     1     -13.971   0.583  12.277  0.00  0.00    +0.000 HD
ATOM     48  H   UNL     1     -14.804  -0.922  12.693  0.00  0.00    +0.000 HD
ATOM     49  H   UNL     1     -14.909  -0.298  11.056  0.00  0.00    +0.000 HD
ENDBRANCH  41  46
BRANCH  41  50
ATOM     50  C   UNL     1     -12.711  -0.926  10.024  0.00  0.00    +0.000 C 
ATOM     51  H   UNL     1     -12.432  -1.819   9.456  0.00  0.00    +0.000 HD
ATOM     52  H   UNL     1     -11.943  -0.158   9.880  0.00  0.00    +0.000 HD
ATOM     53  H   UNL     1     -13.613  -0.525   9.547  0.00  0.00    +0.000 HD
ENDBRANCH  41  50
ENDBRANCH   5  41
TORSDOF 7
ENDMDL
MODEL 6
REMARK VINA RESULT:    -7.366      4.185      7.639
REMARK INTER + INTRA:          -9.143
REMARK INTER:                  -9.098
REMARK INTRA:                  -0.045
REMARK UNBOUND:                 0.376
REMARK  Name = 
REMARK  7 active torsions:
REMARK  status: ('A' for Active; 'I' for Inactive)
REMARK    1  A    between atoms: C_1  and  C_2
REMARK    2  A    between atoms: C_11  and  C_12
REMARK    3  A    between atoms: N_14  and  C_15
REMARK    4  A    between atoms: C_19  and  C_20
REMARK    5  A    between atoms: C_20  and  C_21
REMARK    6  A    between atoms: C_20  and  C_22
REMARK    7  A    between atoms: C_20  and  C_23
REMARK                            x       y       z     vdW  Elec       q    Type
REMARK                         _______ _______ _______ _____ _____    ______ ____
ROOT
ATOM      1  C   UNL     1     -10.558  -4.749  14.606  0.00  0.00    +0.000 A 
ATOM      2  C   UNL     1     -11.529  -4.605  15.607  0.00  0.00    +0.000 A 
ATOM      3  C   UNL     1     -11.283  -5.012  16.921  0.00  0.00    +0.000 A 
ATOM      4  C   UNL     1     -10.123  -5.709  17.196  0.00  0.00    +0.000 A 
ATOM      5  C   UNL     1      -9.764  -6.355  18.489  0.00  0.00    +0.000 A 
ATOM      6  C   UNL     1     -10.365  -7.562  18.444  0.00  0.00    +0.000 A 
ATOM      7  C   UNL     1      -9.679  -8.378  17.347  0.00  0.00    +0.000 A 
ATOM      8  O   UNL     1      -9.628  -9.590  17.438  0.00  0.00    +0.000 OA
ATOM      9  N   UNL     1      -9.207  -7.666  16.253  0.00  0.00    +0.000 N 
ATOM     10  C   UNL     1      -9.522  -6.297  16.080  0.00  0.00    +0.000 A 
ATOM     11  C   UNL     1      -9.551  -5.687  14.827  0.00  0.00    +0.000 A 
ATOM     12  H   UNL     1     -12.504  -4.182  15.391  0.00  0.00    +0.000 HD
ATOM     13  H   UNL     1     -12.053  -4.855  17.674  0.00  0.00    +0.000 HD
ATOM     14  H   UNL     1     -11.436  -7.636  18.250  0.00  0.00    +0.000 HD
ATOM     15  H   UNL     1      -8.853  -8.223  15.476  0.00  0.00    +0.000 HD
ATOM     16  H   UNL     1      -8.878  -6.009  14.043  0.00  0.00    +0.000 HD
ENDROOT
BRANCH   1  19
ATOM     17  C   UNL     1     -10.032  -2.740  13.248  0.00  0.00    +0.000 C 
ATOM     18  O   UNL     1      -9.544  -2.078  14.167  0.00  0.00    +0.000 OA
ATOM     19  N   UNL     1     -10.612  -3.999  13.399  0.00  0.00    +0.000 N 
ATOM     20  H   UNL     1     -10.881  -4.486  12.550  0.00  0.00    +0.000 HD
BRANCH  17  30
ATOM     21  C   UNL     1     -11.138  -2.925  11.003  0.00  0.00    +0.000 C 
ATOM     22  O   UNL     1     -12.483  -2.682  11.447  0.00  0.00    +0.000 OA
ATOM     23  C   UNL     1     -12.709  -1.372  11.778  0.00  0.00    +0.000 A 
ATOM     24  C   UNL     1     -14.038  -1.002  11.961  0.00  0.00    +0.000 A 
ATOM     25  C   UNL     1     -14.359   0.330  12.219  0.00  0.00    +0.000 A 
ATOM     26  C   UNL     1     -13.349   1.289  12.289  0.00  0.00    +0.000 A 
ATOM     27  C   UNL     1     -12.012   0.911  12.136  0.00  0.00    +0.000 A 
ATOM     28  C   UNL     1     -11.691  -0.429  11.911  0.00  0.00    +0.000 A 
ATOM     29  O   UNL     1     -10.358  -0.725  11.820  0.00  0.00    +0.000 OA
ATOM     30  C   UNL     1     -10.113  -2.127  11.838  0.00  0.00    +0.000 C 
ATOM     31  H   UNL     1     -10.967  -4.002  11.131  0.00  0.00    +0.000 HD
ATOM     32  H   UNL     1     -14.826  -1.749  11.889  0.00  0.00    +0.000 HD
ATOM     33  H   UNL     1     -15.397   0.623  12.351  0.00  0.00    +0.000 HD
ATOM     34  H   UNL     1     -13.599   2.332  12.467  0.00  0.00    +0.000 HD
ATOM     35  H   UNL     1     -11.226   1.657  12.193  0.00  0.00    +0.000 HD
ATOM     36  H   UNL     1      -9.116  -2.280  11.404  0.00  0.00    +0.000 HD
BRANCH  21  37
ATOM     37  C   UNL     1     -11.053  -2.655   9.502  0.00  0.00    +0.000 C 
ATOM     38  H   UNL     1     -10.259  -1.926   9.303  0.00  0.00    +0.000 HD
ATOM     39  H   UNL     1     -11.995  -2.253   9.120  0.00  0.00    +0.000 HD
ATOM     40  H   UNL     1     -10.796  -3.556   8.937  0.00  0.00    +0.000 HD
ENDBRANCH  21  37
ENDBRANCH  17  30
ENDBRANCH   1  19
BRANCH   5  41
ATOM     41  C   UNL     1      -8.294  -6.239  19.057  0.00  0.00    +0.000 C 
BRANCH  41  42
ATOM     42  C   UNL     1      -8.137  -4.972  19.922  0.00  0.00    +0.000 C 
ATOM     43  H   UNL     1      -7.137  -4.536  19.830  0.00  0.00    +0.000 HD
ATOM     44  H   UNL     1      -8.334  -5.176  20.979  0.00  0.00    +0.000 HD
ATOM     45  H   UNL     1      -8.855  -4.200  19.607  0.00  0.00    +0.000 HD
ENDBRANCH  41  42
BRANCH  41  46
ATOM     46  C   UNL     1      -7.997  -7.455  19.979  0.00  0.00    +0.000 C 
ATOM     47  H   UNL     1      -8.511  -7.365  20.942  0.00  0.00    +0.000 HD
ATOM     48  H   UNL     1      -6.924  -7.548  20.181  0.00  0.00    +0.000 HD
ATOM     49  H   UNL     1      -8.306  -8.401  19.517  0.00  0.00    +0.000 HD
ENDBRANCH  41  46
BRANCH  41  50
ATOM     50  C   UNL     1      -7.137  -6.211  18.022  0.00  0.00    +0.000 C 
ATOM     51  H   UNL     1      -7.302  -5.475  17.228  0.00  0.00    +0.000 HD
ATOM     52  H   UNL     1      -6.967  -7.193  17.568  0.00  0.00    +0.000 HD
ATOM     53  H   UNL     1      -6.187  -5.944  18.499  0.00  0.00    +0.000 HD
ENDBRANCH  41  50
ENDBRANCH   5  41
TORSDOF 7
ENDMDL
MODEL 7
REMARK VINA RESULT:    -7.280      4.065      8.539
REMARK INTER + INTRA:          -9.032
REMARK INTER:                  -9.003
REMARK INTRA:                  -0.029
REMARK UNBOUND:                 0.376
REMARK  Name = 
REMARK  7 active torsions:
REMARK  status: ('A' for Active; 'I' for Inactive)
REMARK    1  A    between atoms: C_1  and  C_2
REMARK    2  A    between atoms: C_11  and  C_12
REMARK    3  A    between atoms: N_14  and  C_15
REMARK    4  A    between atoms: C_19  and  C_20
REMARK    5  A    between atoms: C_20  and  C_21
REMARK    6  A    between atoms: C_20  and  C_22
REMARK    7  A    between atoms: C_20  and  C_23
REMARK                            x       y       z     vdW  Elec       q    Type
REMARK                         _______ _______ _______ _____ _____    ______ ____
ROOT
ATOM      1  C   UNL     1     -10.814  -4.154  14.261  0.00  0.00    +0.000 A 
ATOM      2  C   UNL     1     -11.887  -4.066  13.362  0.00  0.00    +0.000 A 
ATOM      3  C   UNL     1     -11.889  -3.133  12.322  0.00  0.00    +0.000 A 
ATOM      4  C   UNL     1     -10.888  -2.182  12.279  0.00  0.00    +0.000 A 
ATOM      5  C   UNL     1     -10.809  -1.022  11.350  0.00  0.00    +0.000 A 
ATOM      6  C   UNL     1     -11.561  -0.066  11.935  0.00  0.00    +0.000 A 
ATOM      7  C   UNL     1     -10.847   0.359  13.219  0.00  0.00    +0.000 A 
ATOM      8  O   UNL     1     -10.979   1.494  13.636  0.00  0.00    +0.000 OA
ATOM      9  N   UNL     1     -10.130  -0.628  13.882  0.00  0.00    +0.000 N 
ATOM     10  C   UNL     1     -10.223  -1.985  13.492  0.00  0.00    +0.000 A 
ATOM     11  C   UNL     1      -9.989  -3.037  14.377  0.00  0.00    +0.000 A 
ATOM     12  H   UNL     1     -12.753  -4.713  13.452  0.00  0.00    +0.000 HD
ATOM     13  H   UNL     1     -12.728  -3.118  11.630  0.00  0.00    +0.000 HD
ATOM     14  H   UNL     1     -12.593  -0.275  12.219  0.00  0.00    +0.000 HD
ATOM     15  H   UNL     1      -9.750  -0.370  14.792  0.00  0.00    +0.000 HD
ATOM     16  H   UNL     1      -9.264  -2.934  15.174  0.00  0.00    +0.000 HD
ENDROOT
BRANCH   1  19
ATOM     17  C   UNL     1     -11.200  -5.543  16.280  0.00  0.00    +0.000 C 
ATOM     18  O   UNL     1     -11.874  -4.712  16.892  0.00  0.00    +0.000 OA
ATOM     19  N   UNL     1     -10.591  -5.318  15.047  0.00  0.00    +0.000 N 
ATOM     20  H   UNL     1     -10.153  -6.117  14.597  0.00  0.00    +0.000 HD
BRANCH  17  30
ATOM     21  C   UNL     1      -9.874  -7.664  16.075  0.00  0.00    +0.000 C 
ATOM     22  O   UNL     1      -8.570  -7.068  16.170  0.00  0.00    +0.000 OA
ATOM     23  C   UNL     1      -8.263  -6.651  17.439  0.00  0.00    +0.000 A 
ATOM     24  C   UNL     1      -6.934  -6.310  17.672  0.00  0.00    +0.000 A 
ATOM     25  C   UNL     1      -6.524  -5.955  18.956  0.00  0.00    +0.000 A 
ATOM     26  C   UNL     1      -7.444  -5.948  20.005  0.00  0.00    +0.000 A 
ATOM     27  C   UNL     1      -8.784  -6.260  19.763  0.00  0.00    +0.000 A 
ATOM     28  C   UNL     1      -9.199  -6.583  18.470  0.00  0.00    +0.000 A 
ATOM     29  O   UNL     1     -10.535  -6.830  18.307  0.00  0.00    +0.000 OA
ATOM     30  C   UNL     1     -10.908  -6.906  16.935  0.00  0.00    +0.000 C 
ATOM     31  H   UNL     1     -10.155  -7.607  15.015  0.00  0.00    +0.000 HD
ATOM     32  H   UNL     1      -6.215  -6.333  16.857  0.00  0.00    +0.000 HD
ATOM     33  H   UNL     1      -5.484  -5.699  19.143  0.00  0.00    +0.000 HD
ATOM     34  H   UNL     1      -7.121  -5.694  21.011  0.00  0.00    +0.000 HD
ATOM     35  H   UNL     1      -9.500  -6.252  20.579  0.00  0.00    +0.000 HD
ATOM     36  H   UNL     1     -11.860  -7.450  16.895  0.00  0.00    +0.000 HD
BRANCH  21  37
ATOM     37  C   UNL     1      -9.767  -9.150  16.408  0.00  0.00    +0.000 C 
ATOM     38  H   UNL     1      -9.686  -9.731  15.482  0.00  0.00    +0.000 HD
ATOM     39  H   UNL     1     -10.649  -9.496  16.956  0.00  0.00    +0.000 HD
ATOM     40  H   UNL     1      -8.873  -9.378  16.996  0.00  0.00    +0.000 HD
ENDBRANCH  21  37
ENDBRANCH  17  30
ENDBRANCH   1  19
BRANCH   5  41
ATOM     41  C   UNL     1      -9.433  -0.628  10.680  0.00  0.00    +0.000 C 
BRANCH  41  42
ATOM     42  C   UNL     1      -9.173  -1.474   9.418  0.00  0.00    +0.000 C 
ATOM     43  H   UNL     1      -9.978  -2.192   9.233  0.00  0.00    +0.000 HD
ATOM     44  H   UNL     1      -8.226  -2.019   9.484  0.00  0.00    +0.000 HD
ATOM     45  H   UNL     1      -9.107  -0.827   8.530  0.00  0.00    +0.000 HD
ENDBRANCH  41  42
BRANCH  41  46
ATOM     46  C   UNL     1      -9.484   0.858  10.226  0.00  0.00    +0.000 C 
ATOM     47  H   UNL     1      -9.121   1.531  11.010  0.00  0.00    +0.000 HD
ATOM     48  H   UNL     1     -10.506   1.162   9.972  0.00  0.00    +0.000 HD
ATOM     49  H   UNL     1      -8.880   1.029   9.326  0.00  0.00    +0.000 HD
ENDBRANCH  41  46
BRANCH  41  50
ATOM     50  C   UNL     1      -8.160  -0.749  11.561  0.00  0.00    +0.000 C 
ATOM     51  H   UNL     1      -7.921  -1.787  11.813  0.00  0.00    +0.000 HD
ATOM     52  H   UNL     1      -8.242  -0.167  12.485  0.00  0.00    +0.000 HD
ATOM     53  H   UNL     1      -7.282  -0.346  11.042  0.00  0.00    +0.000 HD
ENDBRANCH  41  50
ENDBRANCH   5  41
TORSDOF 7
ENDMDL
MODEL 8
REMARK VINA RESULT:    -7.263      4.749      7.763
REMARK INTER + INTRA:          -9.010
REMARK INTER:                  -9.950
REMARK INTRA:                   0.940
REMARK UNBOUND:                 0.376
REMARK  Name = 
REMARK  7 active torsions:
REMARK  status: ('A' for Active; 'I' for Inactive)
REMARK    1  A    between atoms: C_1  and  C_2
REMARK    2  A    between atoms: C_11  and  C_12
REMARK    3  A    between atoms: N_14  and  C_15
REMARK    4  A    between atoms: C_19  and  C_20
REMARK    5  A    between atoms: C_20  and  C_21
REMARK    6  A    between atoms: C_20  and  C_22
REMARK    7  A    between atoms: C_20  and  C_23
REMARK                            x       y       z     vdW  Elec       q    Type
REMARK                         _______ _______ _______ _____ _____    ______ ____
ROOT
ATOM      1  C   UNL     1     -10.818  -2.552  16.352  0.00  0.00    +0.000 A 
ATOM      2  C   UNL     1     -12.091  -2.187  16.816  0.00  0.00    +0.000 A 
ATOM      3  C   UNL     1     -12.997  -1.511  15.995  0.00  0.00    +0.000 A 
ATOM      4  C   UNL     1     -12.569  -1.061  14.761  0.00  0.00    +0.000 A 
ATOM      5  C   UNL     1     -13.333  -0.195  13.822  0.00  0.00    +0.000 A 
ATOM      6  C   UNL     1     -13.102   1.063  14.255  0.00  0.00    +0.000 A 
ATOM      7  C   UNL     1     -11.622   1.367  14.017  0.00  0.00    +0.000 A 
ATOM      8  O   UNL     1     -11.267   2.510  13.804  0.00  0.00    +0.000 OA
ATOM      9  N   UNL     1     -10.746   0.295  14.131  0.00  0.00    +0.000 N 
ATOM     10  C   UNL     1     -11.182  -0.955  14.632  0.00  0.00    +0.000 A 
ATOM     11  C   UNL     1     -10.318  -1.855  15.254  0.00  0.00    +0.000 A 
ATOM     12  H   UNL     1     -12.407  -2.409  17.830  0.00  0.00    +0.000 HD
ATOM     13  H   UNL     1     -13.984  -1.273  16.385  0.00  0.00    +0.000 HD
ATOM     14  H   UNL     1     -13.302   1.333  15.293  0.00  0.00    +0.000 HD
ATOM     15  H   UNL     1      -9.754   0.522  14.083  0.00  0.00    +0.000 HD
ATOM     16  H   UNL     1      -9.283  -1.925  14.947  0.00  0.00    +0.000 HD
ENDROOT
BRANCH   1  19
ATOM     17  C   UNL     1     -10.333  -4.927  16.883  0.00  0.00    +0.000 C 
ATOM     18  O   UNL     1     -11.343  -5.395  16.355  0.00  0.00    +0.000 OA
ATOM     19  N   UNL     1     -10.052  -3.566  16.991  0.00  0.00    +0.000 N 
ATOM     20  H   UNL     1      -9.137  -3.311  17.352  0.00  0.00    +0.000 HD
BRANCH  17  30
ATOM     21  C   UNL     1     -10.101  -6.807  18.530  0.00  0.00    +0.000 C 
ATOM     22  O   UNL     1     -10.891  -7.770  17.812  0.00  0.00    +0.000 OA
ATOM     23  C   UNL     1     -10.253  -8.268  16.706  0.00  0.00    +0.000 A 
ATOM     24  C   UNL     1     -10.831  -9.386  16.112  0.00  0.00    +0.000 A 
ATOM     25  C   UNL     1     -10.199 -10.002  15.033  0.00  0.00    +0.000 A 
ATOM     26  C   UNL     1      -8.989  -9.501  14.554  0.00  0.00    +0.000 A 
ATOM     27  C   UNL     1      -8.427  -8.359  15.132  0.00  0.00    +0.000 A 
ATOM     28  C   UNL     1      -9.077  -7.724  16.191  0.00  0.00    +0.000 A 
ATOM     29  O   UNL     1      -8.487  -6.587  16.669  0.00  0.00    +0.000 OA
ATOM     30  C   UNL     1      -9.331  -5.876  17.569  0.00  0.00    +0.000 C 
ATOM     31  H   UNL     1     -10.810  -6.222  19.130  0.00  0.00    +0.000 HD
ATOM     32  H   UNL     1     -11.765  -9.785  16.498  0.00  0.00    +0.000 HD
ATOM     33  H   UNL     1     -10.643 -10.883  14.575  0.00  0.00    +0.000 HD
ATOM     34  H   UNL     1      -8.484  -9.994  13.728  0.00  0.00    +0.000 HD
ATOM     35  H   UNL     1      -7.486  -7.968  14.757  0.00  0.00    +0.000 HD
ATOM     36  H   UNL     1      -8.682  -5.221  18.163  0.00  0.00    +0.000 HD
BRANCH  21  37
ATOM     37  C   UNL     1      -9.205  -7.541  19.525  0.00  0.00    +0.000 C 
ATOM     38  H   UNL     1      -8.453  -8.126  18.982  0.00  0.00    +0.000 HD
ATOM     39  H   UNL     1      -9.787  -8.223  20.151  0.00  0.00    +0.000 HD
ATOM     40  H   UNL     1      -8.654  -6.850  20.170  0.00  0.00    +0.000 HD
ENDBRANCH  21  37
ENDBRANCH  17  30
ENDBRANCH   1  19
BRANCH   5  41
ATOM     41  C   UNL     1     -13.325  -0.497  12.272  0.00  0.00    +0.000 C 
BRANCH  41  42
ATOM     42  C   UNL     1     -13.320  -2.016  12.006  0.00  0.00    +0.000 C 
ATOM     43  H   UNL     1     -14.330  -2.408  11.855  0.00  0.00    +0.000 HD
ATOM     44  H   UNL     1     -12.849  -2.569  12.826  0.00  0.00    +0.000 HD
ATOM     45  H   UNL     1     -12.745  -2.245  11.096  0.00  0.00    +0.000 HD
ENDBRANCH  41  42
BRANCH  41  46
ATOM     46  C   UNL     1     -14.621   0.069  11.625  0.00  0.00    +0.000 C 
ATOM     47  H   UNL     1     -15.196  -0.715  11.123  0.00  0.00    +0.000 HD
ATOM     48  H   UNL     1     -14.390   0.841  10.882  0.00  0.00    +0.000 HD
ATOM     49  H   UNL     1     -15.273   0.544  12.369  0.00  0.00    +0.000 HD
ENDBRANCH  41  46
BRANCH  41  50
ATOM     50  C   UNL     1     -12.154   0.097  11.443  0.00  0.00    +0.000 C 
ATOM     51  H   UNL     1     -11.939  -0.485  10.541  0.00  0.00    +0.000 HD
ATOM     52  H   UNL     1     -11.237   0.191  12.034  0.00  0.00    +0.000 HD
ATOM     53  H   UNL     1     -12.386   1.115  11.106  0.00  0.00    +0.000 HD
ENDBRANCH  41  50
ENDBRANCH   5  41
TORSDOF 7
ENDMDL
MODEL 9
REMARK VINA RESULT:    -7.261      5.097      8.337
REMARK INTER + INTRA:          -9.007
REMARK INTER:                  -9.311
REMARK INTRA:                   0.304
REMARK UNBOUND:                 0.376
REMARK  Name = 
REMARK  7 active torsions:
REMARK  status: ('A' for Active; 'I' for Inactive)
REMARK    1  A    between atoms: C_1  and  C_2
REMARK    2  A    between atoms: C_11  and  C_12
REMARK    3  A    between atoms: N_14  and  C_15
REMARK    4  A    between atoms: C_19  and  C_20
REMARK    5  A    between atoms: C_20  and  C_21
REMARK    6  A    between atoms: C_20  and  C_22
REMARK    7  A    between atoms: C_20  and  C_23
REMARK                            x       y       z     vdW  Elec       q    Type
REMARK                         _______ _______ _______ _____ _____    ______ ____
ROOT
ATOM      1  C   UNL     1     -10.980  -4.629  14.865  0.00  0.00    +0.000 A 
ATOM      2  C   UNL     1      -9.594  -4.741  14.682  0.00  0.00    +0.000 A 
ATOM      3  C   UNL     1      -8.902  -5.895  15.060  0.00  0.00    +0.000 A 
ATOM      4  C   UNL     1      -9.575  -6.873  15.766  0.00  0.00    +0.000 A 
ATOM      5  C   UNL     1      -8.976  -8.088  16.384  0.00  0.00    +0.000 A 
ATOM      6  C   UNL     1      -8.521  -7.669  17.584  0.00  0.00    +0.000 A 
ATOM      7  C   UNL     1      -9.737  -7.304  18.437  0.00  0.00    +0.000 A 
ATOM      8  O   UNL     1      -9.682  -7.417  19.646  0.00  0.00    +0.000 OA
ATOM      9  N   UNL     1     -10.832  -6.785  17.759  0.00  0.00    +0.000 N 
ATOM     10  C   UNL     1     -10.746  -6.435  16.390  0.00  0.00    +0.000 A 
ATOM     11  C   UNL     1     -11.566  -5.467  15.812  0.00  0.00    +0.000 A 
ATOM     12  H   UNL     1      -9.014  -3.932  14.251  0.00  0.00    +0.000 HD
ATOM     13  H   UNL     1      -7.833  -5.952  14.873  0.00  0.00    +0.000 HD
ATOM     14  H   UNL     1      -7.841  -6.818  17.647  0.00  0.00    +0.000 HD
ATOM     15  H   UNL     1     -11.594  -6.440  18.340  0.00  0.00    +0.000 HD
ATOM     16  H   UNL     1     -12.580  -5.324  16.163  0.00  0.00    +0.000 HD
ENDROOT
BRANCH   1  19
ATOM     17  C   UNL     1     -11.719  -2.308  14.392  0.00  0.00    +0.000 C 
ATOM     18  O   UNL     1     -11.137  -1.782  15.344  0.00  0.00    +0.000 OA
ATOM     19  N   UNL     1     -11.754  -3.679  14.144  0.00  0.00    +0.000 N 
ATOM     20  H   UNL     1     -12.176  -3.978  13.270  0.00  0.00    +0.000 HD
BRANCH  17  30
ATOM     21  C   UNL     1     -11.815  -0.096  13.210  0.00  0.00    +0.000 C 
ATOM     22  O   UNL     1     -10.643  -0.277  12.399  0.00  0.00    +0.000 OA
ATOM     23  C   UNL     1     -10.833  -1.167  11.374  0.00  0.00    +0.000 A 
ATOM     24  C   UNL     1      -9.846  -1.199  10.394  0.00  0.00    +0.000 A 
ATOM     25  C   UNL     1     -10.004  -2.017   9.276  0.00  0.00    +0.000 A 
ATOM     26  C   UNL     1     -11.153  -2.797   9.140  0.00  0.00    +0.000 A 
ATOM     27  C   UNL     1     -12.129  -2.786  10.140  0.00  0.00    +0.000 A 
ATOM     28  C   UNL     1     -11.952  -1.991  11.274  0.00  0.00    +0.000 A 
ATOM     29  O   UNL     1     -12.930  -2.073  12.228  0.00  0.00    +0.000 OA
ATOM     30  C   UNL     1     -12.555  -1.431  13.442  0.00  0.00    +0.000 C 
ATOM     31  H   UNL     1     -11.461   0.307  14.167  0.00  0.00    +0.000 HD
ATOM     32  H   UNL     1      -8.959  -0.578  10.494  0.00  0.00    +0.000 HD
ATOM     33  H   UNL     1      -9.239  -2.036   8.504  0.00  0.00    +0.000 HD
ATOM     34  H   UNL     1     -11.289  -3.417   8.257  0.00  0.00    +0.000 HD
ATOM     35  H   UNL     1     -13.021  -3.394  10.034  0.00  0.00    +0.000 HD
ATOM     36  H   UNL     1     -13.483  -1.224  13.990  0.00  0.00    +0.000 HD
BRANCH  21  37
ATOM     37  C   UNL     1     -12.688   0.992  12.588  0.00  0.00    +0.000 C 
ATOM     38  H   UNL     1     -13.737   0.674  12.598  0.00  0.00    +0.000 HD
ATOM     39  H   UNL     1     -12.396   1.186  11.551  0.00  0.00    +0.000 HD
ATOM     40  H   UNL     1     -12.642   1.928  13.150  0.00  0.00    +0.000 HD
ENDBRANCH  21  37
ENDBRANCH  17  30
ENDBRANCH   1  19
BRANCH   5  41
ATOM     41  C   UNL     1      -9.710  -9.482  16.275  0.00  0.00    +0.000 C 
BRANCH  41  42
ATOM     42  C   UNL     1      -9.237 -10.258  15.030  0.00  0.00    +0.000 C 
ATOM     43  H   UNL     1      -8.585 -11.096  15.293  0.00  0.00    +0.000 HD
ATOM     44  H   UNL     1      -8.706  -9.609  14.326  0.00  0.00    +0.000 HD
ATOM     45  H   UNL     1     -10.099 -10.677  14.489  0.00  0.00    +0.000 HD
ENDBRANCH  41  42
BRANCH  41  46
ATOM     46  C   UNL     1      -9.354 -10.354  17.512  0.00  0.00    +0.000 C 
ATOM     47  H   UNL     1      -9.472  -9.795  18.446  0.00  0.00    +0.000 HD
ATOM     48  H   UNL     1      -8.317 -10.708  17.464  0.00  0.00    +0.000 HD
ATOM     49  H   UNL     1      -9.982 -11.252  17.572  0.00  0.00    +0.000 HD
ENDBRANCH  41  46
BRANCH  41  50
ATOM     50  C   UNL     1     -11.262  -9.461  16.217  0.00  0.00    +0.000 C 
ATOM     51  H   UNL     1     -11.722  -9.922  17.097  0.00  0.00    +0.000 HD
ATOM     52  H   UNL     1     -11.647  -9.950  15.315  0.00  0.00    +0.000 HD
ATOM     53  H   UNL     1     -11.641  -8.433  16.172  0.00  0.00    +0.000 HD
ENDBRANCH  41  50
ENDBRANCH   5  41
TORSDOF 7
ENDMDL
