
 OpenBabel01112423073D

 36 37  0  0  0  0  0  0  0  0999 V2000
    1.1104   -0.1247    0.6585 C   0  0  0  0  0  0  0  0  0  0  0  0
    2.4254    0.1792   -0.0606 C   0  0  0  0  0  0  0  0  0  0  0  0
    2.2817   -0.0309   -1.5684 C   0  0  0  0  0  0  0  0  0  0  0  0
    2.9416    1.5623    0.2504 C   0  0  0  0  0  0  0  0  0  0  0  0
    4.1392    1.8161    0.8073 C   0  0  0  0  0  0  0  0  0  0  0  0
    4.4150    3.5306    0.9881 S   0  0  0  0  0  0  0  0  0  0  0  0
    2.8160    3.9155    0.2855 C   0  0  0  0  0  0  0  0  0  0  0  0
    2.2936    5.0826    0.1036 N   0  0  0  0  0  0  0  0  0  0  0  0
    3.1285    6.4030    0.5068 S   0  0  0  0  0  0  0  0  0  0  0  0
    3.3393    6.4482    1.9390 O   0  0  0  0  0  0  0  0  0  0  0  0
    4.2018    6.6379   -0.4325 O   0  0  0  0  0  0  0  0  0  0  0  0
    1.9926    7.7358    0.2073 C   0  0  0  0  0  0  0  0  0  0  0  0
    1.4914    7.9781   -1.0684 C   0  0  0  0  0  0  0  0  0  0  0  0
    0.6271    9.0590   -1.2578 C   0  0  0  0  0  0  0  0  0  0  0  0
    0.2821    9.8605   -0.1688 C   0  0  0  0  0  0  0  0  0  0  0  0
   -0.6811   10.8746   -0.2782 N   0  0  0  0  0  0  0  0  0  0  0  0
   -1.1645   11.4595    0.9178 N   0  0  0  0  0  0  0  0  0  0  0  0
    0.8147    9.5976    1.0313 N   0  3  0  0  0  0  0  0  0  0  0  0
    1.6571    8.5785    1.2590 C   0  0  0  0  0  0  0  0  0  0  0  0
    2.2215    2.7139   -0.0290 N   0  0  0  0  0  0  0  0  0  0  0  0
    0.8085   -1.1632    0.4796 H   0  0  0  0  0  0  0  0  0  0  0  0
    0.2971    0.5219    0.3124 H   0  0  0  0  0  0  0  0  0  0  0  0
    1.2138    0.0068    1.7412 H   0  0  0  0  0  0  0  0  0  0  0  0
    3.1606   -0.5548    0.2974 H   0  0  0  0  0  0  0  0  0  0  0  0
    1.5470    0.6536   -2.0058 H   0  0  0  0  0  0  0  0  0  0  0  0
    1.9577   -1.0545   -1.7861 H   0  0  0  0  0  0  0  0  0  0  0  0
    3.2390    0.1288   -2.0772 H   0  0  0  0  0  0  0  0  0  0  0  0
    4.8715    1.0773    1.1061 H   0  0  0  0  0  0  0  0  0  0  0  0
    1.7661    7.3395   -1.9084 H   0  0  0  0  0  0  0  0  0  0  0  0
    0.2066    9.2526   -2.2394 H   0  0  0  0  0  0  0  0  0  0  0  0
   -0.4398   11.5291   -1.0371 H   0  0  0  0  0  0  0  0  0  0  0  0
   -1.7236   10.7801    1.4542 H   0  0  0  0  0  0  0  0  0  0  0  0
   -1.8979   12.1470    0.6676 H   0  0  0  0  0  0  0  0  0  0  0  0
    0.5394   10.2478    1.7689 H   0  0  0  0  0  0  0  0  0  0  0  0
    2.0254    8.4727    2.2734 H   0  0  0  0  0  0  0  0  0  0  0  0
    1.3120    2.6593   -0.4626 H   0  0  0  0  0  0  0  0  0  0  0  0
  1  2  1  0  0  0  0
  1 21  1  0  0  0  0
  1 22  1  0  0  0  0
  1 23  1  0  0  0  0
  2  3  1  0  0  0  0
  2  4  1  0  0  0  0
  2 24  1  0  0  0  0
  3 25  1  0  0  0  0
  3 26  1  0  0  0  0
  3 27  1  0  0  0  0
  4  5  2  0  0  0  0
  4 20  1  0  0  0  0
  5  6  1  0  0  0  0
  5 28  1  0  0  0  0
  6  7  1  0  0  0  0
  7  8  2  0  0  0  0
  7 20  1  0  0  0  0
  8  9  1  0  0  0  0
  9 10  2  0  0  0  0
  9 11  2  0  0  0  0
  9 12  1  0  0  0  0
 12 13  1  0  0  0  0
 12 19  2  0  0  0  0
 13 14  2  0  0  0  0
 13 29  1  0  0  0  0
 14 15  1  0  0  0  0
 14 30  1  0  0  0  0
 15 16  1  0  0  0  0
 15 18  2  0  0  0  0
 16 17  1  0  0  0  0
 16 31  1  0  0  0  0
 17 32  1  0  0  0  0
 17 33  1  0  0  0  0
 18 19  1  0  0  0  0
 18 34  1  0  0  0  0
 19 35  1  0  0  0  0
 20 36  1  0  0  0  0
M  CHG  1  18   1
M  END
$$$$
