MODEL 1
REMARK VINA RESULT:    -9.254      0.000      0.000
REMARK INTER + INTRA:         -12.405
REMARK INTER:                 -11.959
REMARK INTRA:                  -0.446
REMARK UNBOUND:                -0.446
REMARK  Name = 
REMARK  7 active torsions:
REMARK  status: ('A' for Active; 'I' for Inactive)
REMARK    1  A    between atoms: C_1  and  C_2
REMARK    2  A    between atoms: C_2  and  C_3
REMARK    3  A    between atoms: C_2  and  C_4
REMARK    4  A    between atoms: C_2  and  C_5
REMARK    5  A    between atoms: C_8  and  C_9
REMARK    6  A    between atoms: C_9  and  N_10
REMARK    7  A    between atoms: C_16  and  N_17
REMARK                            x       y       z     vdW  Elec       q    Type
REMARK                         _______ _______ _______ _____ _____    ______ ____
ROOT
ATOM      1  N   UNL     1      -8.857  -6.157  19.745  0.00  0.00    +0.000 N 
ATOM      2  C   UNL     1      -9.770  -6.011  18.520  0.00  0.00    +0.000 C 
ATOM      3  C   UNL     1     -10.623  -7.258  18.233  0.00  0.00    +0.000 C 
ATOM      4  N   UNL     1      -9.794  -8.454  18.283  0.00  0.00    +0.000 N 
ATOM      5  C   UNL     1      -9.433  -9.210  17.191  0.00  0.00    +0.000 A 
ATOM      6  C   UNL     1      -9.504  -8.752  15.889  0.00  0.00    +0.000 A 
ATOM      7  C   UNL     1      -9.156  -9.627  14.883  0.00  0.00    +0.000 A 
ATOM      8  N   UNL     1      -8.785 -10.880  15.118  0.00  0.00    +0.000 NA
ATOM      9  C   UNL     1      -8.716 -11.249  16.393  0.00  0.00    +0.000 A 
ATOM     10  N   UNL     1      -8.376 -12.561  16.659  0.00  0.00    +0.000 N 
ATOM     11  N   UNL     1      -9.005 -10.465  17.433  0.00  0.00    +0.000 NA
ATOM     12  C   UNL     1      -9.161  -8.706  19.579  0.00  0.00    +0.000 C 
ATOM     13  C   UNL     1      -8.210  -7.539  19.920  0.00  0.00    +0.000 C 
ATOM     14  H   UNL     1      -9.469  -6.042  20.562  0.00  0.00    +0.000 HD
ATOM     15  H   UNL     1      -9.144  -5.823  17.649  0.00  0.00    +0.000 HD
ATOM     16  H   UNL     1     -10.411  -5.144  18.713  0.00  0.00    +0.000 HD
ATOM     17  H   UNL     1     -11.147  -7.139  17.279  0.00  0.00    +0.000 HD
ATOM     18  H   UNL     1     -11.407  -7.346  18.995  0.00  0.00    +0.000 HD
ATOM     19  H   UNL     1      -9.819  -7.751  15.636  0.00  0.00    +0.000 HD
ATOM     20  H   UNL     1      -8.582 -13.127  15.845  0.00  0.00    +0.000 HD
ATOM     21  H   UNL     1      -8.807 -12.856  17.525  0.00  0.00    +0.000 HD
ATOM     22  H   UNL     1      -8.591  -9.639  19.624  0.00  0.00    +0.000 HD
ATOM     23  H   UNL     1      -9.941  -8.782  20.345  0.00  0.00    +0.000 HD
ATOM     24  H   UNL     1      -7.333  -7.580  19.274  0.00  0.00    +0.000 HD
ATOM     25  H   UNL     1      -7.898  -7.598  20.969  0.00  0.00    +0.000 HD
ENDROOT
BRANCH   1  26
ATOM     26  C   UNL     1      -7.821  -5.036  19.831  0.00  0.00    +0.000 C 
ATOM     27  H   UNL     1      -6.874  -5.521  20.097  0.00  0.00    +0.000 HD
ATOM     28  H   UNL     1      -7.696  -4.639  18.816  0.00  0.00    +0.000 HD
BRANCH  26  32
ATOM     29  C   UNL     1      -8.777  -1.911  22.739  0.00  0.00    +0.000 A 
ATOM     30  C   UNL     1      -7.999  -3.030  23.074  0.00  0.00    +0.000 A 
ATOM     31  C   UNL     1      -7.658  -4.002  22.128  0.00  0.00    +0.000 A 
ATOM     32  C   UNL     1      -8.125  -3.925  20.810  0.00  0.00    +0.000 A 
ATOM     33  C   UNL     1      -8.906  -2.815  20.460  0.00  0.00    +0.000 A 
ATOM     34  C   UNL     1      -9.232  -1.834  21.411  0.00  0.00    +0.000 A 
ATOM     35  H   UNL     1      -7.634  -3.173  24.088  0.00  0.00    +0.000 HD
ATOM     36  H   UNL     1      -7.033  -4.831  22.455  0.00  0.00    +0.000 HD
ATOM     37  H   UNL     1      -9.282  -2.691  19.447  0.00  0.00    +0.000 HD
ATOM     38  H   UNL     1      -9.858  -1.004  21.085  0.00  0.00    +0.000 HD
BRANCH  29  39
ATOM     39  C   UNL     1      -9.131  -0.841  23.793  0.00  0.00    +0.000 C 
BRANCH  39  40
ATOM     40  C   UNL     1      -9.343  -1.455  25.199  0.00  0.00    +0.000 C 
ATOM     41  H   UNL     1      -9.057  -2.513  25.217  0.00  0.00    +0.000 HD
ATOM     42  H   UNL     1     -10.395  -1.390  25.501  0.00  0.00    +0.000 HD
ATOM     43  H   UNL     1      -8.737  -0.962  25.965  0.00  0.00    +0.000 HD
ENDBRANCH  39  40
BRANCH  39  44
ATOM     44  C   UNL     1     -10.435  -0.134  23.372  0.00  0.00    +0.000 C 
ATOM     45  H   UNL     1     -11.139  -0.844  22.919  0.00  0.00    +0.000 HD
ATOM     46  H   UNL     1     -10.245   0.655  22.635  0.00  0.00    +0.000 HD
ATOM     47  H   UNL     1     -10.938   0.328  24.228  0.00  0.00    +0.000 HD
ENDBRANCH  39  44
BRANCH  39  48
ATOM     48  C   UNL     1      -8.026   0.229  23.955  0.00  0.00    +0.000 C 
ATOM     49  H   UNL     1      -7.480   0.375  23.014  0.00  0.00    +0.000 HD
ATOM     50  H   UNL     1      -7.278  -0.051  24.705  0.00  0.00    +0.000 HD
ATOM     51  H   UNL     1      -8.452   1.197  24.244  0.00  0.00    +0.000 HD
ENDBRANCH  39  48
ENDBRANCH  29  39
ENDBRANCH  26  32
ENDBRANCH   1  26
BRANCH   7  52
ATOM     52  N   UNL     1      -9.222  -9.230  13.547  0.00  0.00    +0.000 N 
ATOM     53  H   UNL     1      -8.631  -9.790  12.944  0.00  0.00    +0.000 HD
ATOM     54  H   UNL     1     -10.199  -9.297  13.260  0.00  0.00    +0.000 HD
ENDBRANCH   7  52
TORSDOF 7
ENDMDL
MODEL 2
REMARK VINA RESULT:    -8.437      3.865      9.260
REMARK INTER + INTRA:         -11.349
REMARK INTER:                 -11.027
REMARK INTRA:                  -0.322
REMARK UNBOUND:                -0.446
REMARK  Name = 
REMARK  7 active torsions:
REMARK  status: ('A' for Active; 'I' for Inactive)
REMARK    1  A    between atoms: C_1  and  C_2
REMARK    2  A    between atoms: C_2  and  C_3
REMARK    3  A    between atoms: C_2  and  C_4
REMARK    4  A    between atoms: C_2  and  C_5
REMARK    5  A    between atoms: C_8  and  C_9
REMARK    6  A    between atoms: C_9  and  N_10
REMARK    7  A    between atoms: C_16  and  N_17
REMARK                            x       y       z     vdW  Elec       q    Type
REMARK                         _______ _______ _______ _____ _____    ______ ____
ROOT
ATOM      1  N   UNL     1      -6.763  -4.259  20.475  0.00  0.00    +0.000 N 
ATOM      2  C   UNL     1      -8.261  -4.015  20.246  0.00  0.00    +0.000 C 
ATOM      3  C   UNL     1      -8.745  -2.639  20.731  0.00  0.00    +0.000 C 
ATOM      4  N   UNL     1      -8.245  -2.377  22.073  0.00  0.00    +0.000 N 
ATOM      5  C   UNL     1      -9.016  -2.361  23.214  0.00  0.00    +0.000 A 
ATOM      6  C   UNL     1     -10.273  -2.930  23.292  0.00  0.00    +0.000 A 
ATOM      7  C   UNL     1     -10.959  -2.803  24.481  0.00  0.00    +0.000 A 
ATOM      8  N   UNL     1     -10.471  -2.143  25.524  0.00  0.00    +0.000 NA
ATOM      9  C   UNL     1      -9.248  -1.640  25.390  0.00  0.00    +0.000 A 
ATOM     10  N   UNL     1      -8.739  -0.911  26.447  0.00  0.00    +0.000 N 
ATOM     11  N   UNL     1      -8.497  -1.738  24.291  0.00  0.00    +0.000 NA
ATOM     12  C   UNL     1      -6.785  -2.338  22.186  0.00  0.00    +0.000 C 
ATOM     13  C   UNL     1      -6.205  -3.715  21.799  0.00  0.00    +0.000 C 
ATOM     14  H   UNL     1      -6.281  -3.726  19.741  0.00  0.00    +0.000 HD
ATOM     15  H   UNL     1      -8.817  -4.778  20.789  0.00  0.00    +0.000 HD
ATOM     16  H   UNL     1      -8.431  -4.124  19.169  0.00  0.00    +0.000 HD
ATOM     17  H   UNL     1      -9.836  -2.581  20.662  0.00  0.00    +0.000 HD
ATOM     18  H   UNL     1      -8.362  -1.861  20.059  0.00  0.00    +0.000 HD
ATOM     19  H   UNL     1     -10.729  -3.459  22.470  0.00  0.00    +0.000 HD
ATOM     20  H   UNL     1      -9.506  -0.570  27.013  0.00  0.00    +0.000 HD
ATOM     21  H   UNL     1      -8.097  -0.211  26.100  0.00  0.00    +0.000 HD
ATOM     22  H   UNL     1      -6.421  -2.080  23.186  0.00  0.00    +0.000 HD
ATOM     23  H   UNL     1      -6.398  -1.570  21.507  0.00  0.00    +0.000 HD
ATOM     24  H   UNL     1      -6.432  -4.442  22.579  0.00  0.00    +0.000 HD
ATOM     25  H   UNL     1      -5.119  -3.645  21.665  0.00  0.00    +0.000 HD
ENDROOT
BRANCH   1  26
ATOM     26  C   UNL     1      -6.376  -5.722  20.261  0.00  0.00    +0.000 C 
ATOM     27  H   UNL     1      -5.341  -5.710  19.896  0.00  0.00    +0.000 HD
ATOM     28  H   UNL     1      -6.355  -6.195  21.250  0.00  0.00    +0.000 HD
BRANCH  26  32
ATOM     29  C   UNL     1      -8.825  -8.104  17.528  0.00  0.00    +0.000 A 
ATOM     30  C   UNL     1      -8.805  -8.341  18.911  0.00  0.00    +0.000 A 
ATOM     31  C   UNL     1      -8.056  -7.546  19.786  0.00  0.00    +0.000 A 
ATOM     32  C   UNL     1      -7.249  -6.507  19.307  0.00  0.00    +0.000 A 
ATOM     33  C   UNL     1      -7.256  -6.259  17.927  0.00  0.00    +0.000 A 
ATOM     34  C   UNL     1      -8.022  -7.051  17.057  0.00  0.00    +0.000 A 
ATOM     35  H   UNL     1      -9.377  -9.155  19.347  0.00  0.00    +0.000 HD
ATOM     36  H   UNL     1      -8.105  -7.775  20.848  0.00  0.00    +0.000 HD
ATOM     37  H   UNL     1      -6.664  -5.453  17.499  0.00  0.00    +0.000 HD
ATOM     38  H   UNL     1      -7.973  -6.823  15.993  0.00  0.00    +0.000 HD
BRANCH  29  39
ATOM     39  C   UNL     1      -9.670  -8.983  16.581  0.00  0.00    +0.000 C 
BRANCH  39  40
ATOM     40  C   UNL     1      -9.148  -8.937  15.124  0.00  0.00    +0.000 C 
ATOM     41  H   UNL     1      -9.734  -9.595  14.471  0.00  0.00    +0.000 HD
ATOM     42  H   UNL     1      -8.102  -9.261  15.071  0.00  0.00    +0.000 HD
ATOM     43  H   UNL     1      -9.217  -7.935  14.688  0.00  0.00    +0.000 HD
ENDBRANCH  39  40
BRANCH  39  44
ATOM     44  C   UNL     1     -11.126  -8.474  16.591  0.00  0.00    +0.000 C 
ATOM     45  H   UNL     1     -11.829  -9.291  16.387  0.00  0.00    +0.000 HD
ATOM     46  H   UNL     1     -11.287  -7.702  15.830  0.00  0.00    +0.000 HD
ATOM     47  H   UNL     1     -11.394  -8.042  17.561  0.00  0.00    +0.000 HD
ENDBRANCH  39  44
BRANCH  39  48
ATOM     48  C   UNL     1      -9.672 -10.474  16.990  0.00  0.00    +0.000 C 
ATOM     49  H   UNL     1      -9.191 -10.614  17.966  0.00  0.00    +0.000 HD
ATOM     50  H   UNL     1      -9.120 -11.103  16.282  0.00  0.00    +0.000 HD
ATOM     51  H   UNL     1     -10.694 -10.863  17.065  0.00  0.00    +0.000 HD
ENDBRANCH  39  48
ENDBRANCH  29  39
ENDBRANCH  26  32
ENDBRANCH   1  26
BRANCH   7  52
ATOM     52  N   UNL     1     -12.239  -3.341  24.618  0.00  0.00    +0.000 N 
ATOM     53  H   UNL     1     -12.500  -3.930  23.835  0.00  0.00    +0.000 HD
ATOM     54  H   UNL     1     -12.253  -3.871  25.489  0.00  0.00    +0.000 HD
ENDBRANCH   7  52
TORSDOF 7
ENDMDL
MODEL 3
REMARK VINA RESULT:    -8.016      3.105      9.634
REMARK INTER + INTRA:         -10.805
REMARK INTER:                 -10.648
REMARK INTRA:                  -0.158
REMARK UNBOUND:                -0.446
REMARK  Name = 
REMARK  7 active torsions:
REMARK  status: ('A' for Active; 'I' for Inactive)
REMARK    1  A    between atoms: C_1  and  C_2
REMARK    2  A    between atoms: C_2  and  C_3
REMARK    3  A    between atoms: C_2  and  C_4
REMARK    4  A    between atoms: C_2  and  C_5
REMARK    5  A    between atoms: C_8  and  C_9
REMARK    6  A    between atoms: C_9  and  N_10
REMARK    7  A    between atoms: C_16  and  N_17
REMARK                            x       y       z     vdW  Elec       q    Type
REMARK                         _______ _______ _______ _____ _____    ______ ____
ROOT
ATOM      1  N   UNL     1      -8.440  -5.539  19.642  0.00  0.00    +0.000 N 
ATOM      2  C   UNL     1      -9.637  -4.782  19.049  0.00  0.00    +0.000 C 
ATOM      3  C   UNL     1      -9.413  -3.266  18.934  0.00  0.00    +0.000 C 
ATOM      4  N   UNL     1      -8.873  -2.744  20.181  0.00  0.00    +0.000 N 
ATOM      5  C   UNL     1      -9.562  -1.950  21.070  0.00  0.00    +0.000 A 
ATOM      6  C   UNL     1     -10.939  -1.836  21.081  0.00  0.00    +0.000 A 
ATOM      7  C   UNL     1     -11.503  -0.971  21.993  0.00  0.00    +0.000 A 
ATOM      8  N   UNL     1     -10.778  -0.238  22.829  0.00  0.00    +0.000 NA
ATOM      9  C   UNL     1      -9.460  -0.412  22.783  0.00  0.00    +0.000 A 
ATOM     10  N   UNL     1      -8.684   0.373  23.612  0.00  0.00    +0.000 N 
ATOM     11  N   UNL     1      -8.828  -1.247  21.955  0.00  0.00    +0.000 NA
ATOM     12  C   UNL     1      -7.574  -3.300  20.566  0.00  0.00    +0.000 C 
ATOM     13  C   UNL     1      -7.714  -4.821  20.790  0.00  0.00    +0.000 C 
ATOM     14  H   UNL     1      -7.749  -5.603  18.885  0.00  0.00    +0.000 HD
ATOM     15  H   UNL     1     -10.498  -4.948  19.693  0.00  0.00    +0.000 HD
ATOM     16  H   UNL     1      -9.819  -5.219  18.060  0.00  0.00    +0.000 HD
ATOM     17  H   UNL     1     -10.343  -2.773  18.631  0.00  0.00    +0.000 HD
ATOM     18  H   UNL     1      -8.694  -3.063  18.132  0.00  0.00    +0.000 HD
ATOM     19  H   UNL     1     -11.578  -2.391  20.410  0.00  0.00    +0.000 HD
ATOM     20  H   UNL     1      -9.205   1.204  23.864  0.00  0.00    +0.000 HD
ATOM     21  H   UNL     1      -7.780   0.528  23.186  0.00  0.00    +0.000 HD
ATOM     22  H   UNL     1      -7.147  -2.856  21.471  0.00  0.00    +0.000 HD
ATOM     23  H   UNL     1      -6.855  -3.111  19.760  0.00  0.00    +0.000 HD
ATOM     24  H   UNL     1      -8.274  -5.007  21.706  0.00  0.00    +0.000 HD
ATOM     25  H   UNL     1      -6.724  -5.286  20.861  0.00  0.00    +0.000 HD
ENDROOT
BRANCH   1  26
ATOM     26  C   UNL     1      -8.795  -6.979  20.016  0.00  0.00    +0.000 C 
ATOM     27  H   UNL     1      -8.063  -7.283  20.774  0.00  0.00    +0.000 HD
ATOM     28  H   UNL     1      -9.770  -6.948  20.515  0.00  0.00    +0.000 HD
BRANCH  26  32
ATOM     29  C   UNL     1      -8.947  -9.821  16.694  0.00  0.00    +0.000 A 
ATOM     30  C   UNL     1      -8.939  -8.433  16.488  0.00  0.00    +0.000 A 
ATOM     31  C   UNL     1      -8.843  -7.530  17.552  0.00  0.00    +0.000 A 
ATOM     32  C   UNL     1      -8.803  -7.976  18.879  0.00  0.00    +0.000 A 
ATOM     33  C   UNL     1      -8.814  -9.360  19.101  0.00  0.00    +0.000 A 
ATOM     34  C   UNL     1      -8.895 -10.262  18.027  0.00  0.00    +0.000 A 
ATOM     35  H   UNL     1      -9.005  -8.016  15.487  0.00  0.00    +0.000 HD
ATOM     36  H   UNL     1      -8.820  -6.468  17.316  0.00  0.00    +0.000 HD
ATOM     37  H   UNL     1      -8.766  -9.767  20.109  0.00  0.00    +0.000 HD
ATOM     38  H   UNL     1      -8.918 -11.325  18.263  0.00  0.00    +0.000 HD
BRANCH  29  39
ATOM     39  C   UNL     1      -9.038 -10.803  15.506  0.00  0.00    +0.000 C 
BRANCH  39  40
ATOM     40  C   UNL     1      -7.748 -10.803  14.650  0.00  0.00    +0.000 C 
ATOM     41  H   UNL     1      -7.177 -11.727  14.792  0.00  0.00    +0.000 HD
ATOM     42  H   UNL     1      -7.096  -9.964  14.923  0.00  0.00    +0.000 HD
ATOM     43  H   UNL     1      -7.958 -10.736  13.578  0.00  0.00    +0.000 HD
ENDBRANCH  39  40
BRANCH  39  44
ATOM     44  C   UNL     1     -10.218 -10.389  14.604  0.00  0.00    +0.000 C 
ATOM     45  H   UNL     1     -10.579 -11.241  14.013  0.00  0.00    +0.000 HD
ATOM     46  H   UNL     1      -9.929  -9.600  13.900  0.00  0.00    +0.000 HD
ATOM     47  H   UNL     1     -11.063 -10.014  15.192  0.00  0.00    +0.000 HD
ENDBRANCH  39  44
BRANCH  39  48
ATOM     48  C   UNL     1      -9.256 -12.267  15.953  0.00  0.00    +0.000 C 
ATOM     49  H   UNL     1      -8.797 -12.450  16.934  0.00  0.00    +0.000 HD
ATOM     50  H   UNL     1      -8.806 -12.988  15.263  0.00  0.00    +0.000 HD
ATOM     51  H   UNL     1     -10.324 -12.499  16.039  0.00  0.00    +0.000 HD
ENDBRANCH  39  48
ENDBRANCH  29  39
ENDBRANCH  26  32
ENDBRANCH   1  26
BRANCH   7  52
ATOM     52  N   UNL     1     -12.887  -0.799  22.042  0.00  0.00    +0.000 N 
ATOM     53  H   UNL     1     -13.250  -0.328  21.222  0.00  0.00    +0.000 HD
ATOM     54  H   UNL     1     -13.303  -1.725  22.141  0.00  0.00    +0.000 HD
ENDBRANCH   7  52
TORSDOF 7
ENDMDL
MODEL 4
REMARK VINA RESULT:    -7.970      2.131      4.547
REMARK INTER + INTRA:         -10.746
REMARK INTER:                 -10.302
REMARK INTRA:                  -0.444
REMARK UNBOUND:                -0.446
REMARK  Name = 
REMARK  7 active torsions:
REMARK  status: ('A' for Active; 'I' for Inactive)
REMARK    1  A    between atoms: C_1  and  C_2
REMARK    2  A    between atoms: C_2  and  C_3
REMARK    3  A    between atoms: C_2  and  C_4
REMARK    4  A    between atoms: C_2  and  C_5
REMARK    5  A    between atoms: C_8  and  C_9
REMARK    6  A    between atoms: C_9  and  N_10
REMARK    7  A    between atoms: C_16  and  N_17
REMARK                            x       y       z     vdW  Elec       q    Type
REMARK                         _______ _______ _______ _____ _____    ______ ____
ROOT
ATOM      1  N   UNL     1      -8.838  -2.828  21.652  0.00  0.00    +0.000 N 
ATOM      2  C   UNL     1      -7.903  -4.018  21.910  0.00  0.00    +0.000 C 
ATOM      3  C   UNL     1      -7.274  -4.598  20.633  0.00  0.00    +0.000 C 
ATOM      4  N   UNL     1      -8.297  -4.790  19.614  0.00  0.00    +0.000 N 
ATOM      5  C   UNL     1      -8.773  -6.011  19.193  0.00  0.00    +0.000 A 
ATOM      6  C   UNL     1      -8.613  -7.180  19.911  0.00  0.00    +0.000 A 
ATOM      7  C   UNL     1      -9.098  -8.344  19.354  0.00  0.00    +0.000 A 
ATOM      8  N   UNL     1      -9.680  -8.381  18.161  0.00  0.00    +0.000 NA
ATOM      9  C   UNL     1      -9.823  -7.217  17.534  0.00  0.00    +0.000 A 
ATOM     10  N   UNL     1     -10.384  -7.238  16.273  0.00  0.00    +0.000 N 
ATOM     11  N   UNL     1      -9.412  -6.038  18.006  0.00  0.00    +0.000 NA
ATOM     12  C   UNL     1      -8.975  -3.563  19.190  0.00  0.00    +0.000 C 
ATOM     13  C   UNL     1      -9.714  -2.944  20.395  0.00  0.00    +0.000 C 
ATOM     14  H   UNL     1      -8.222  -2.025  21.476  0.00  0.00    +0.000 HD
ATOM     15  H   UNL     1      -8.480  -4.806  22.390  0.00  0.00    +0.000 HD
ATOM     16  H   UNL     1      -7.124  -3.657  22.591  0.00  0.00    +0.000 HD
ATOM     17  H   UNL     1      -6.730  -5.518  20.871  0.00  0.00    +0.000 HD
ATOM     18  H   UNL     1      -6.524  -3.899  20.246  0.00  0.00    +0.000 HD
ATOM     19  H   UNL     1      -8.129  -7.215  20.875  0.00  0.00    +0.000 HD
ATOM     20  H   UNL     1     -10.272  -8.163  15.876  0.00  0.00    +0.000 HD
ATOM     21  H   UNL     1     -10.018  -6.471  15.724  0.00  0.00    +0.000 HD
ATOM     22  H   UNL     1      -9.697  -3.708  18.380  0.00  0.00    +0.000 HD
ATOM     23  H   UNL     1      -8.226  -2.856  18.814  0.00  0.00    +0.000 HD
ATOM     24  H   UNL     1     -10.580  -3.556  20.648  0.00  0.00    +0.000 HD
ATOM     25  H   UNL     1     -10.040  -1.925  20.157  0.00  0.00    +0.000 HD
ENDROOT
BRANCH   1  26
ATOM     26  C   UNL     1      -9.667  -2.466  22.884  0.00  0.00    +0.000 C 
ATOM     27  H   UNL     1     -10.713  -2.645  22.607  0.00  0.00    +0.000 HD
ATOM     28  H   UNL     1      -9.418  -3.197  23.662  0.00  0.00    +0.000 HD
BRANCH  26  32
ATOM     29  C   UNL     1      -9.286   1.588  24.482  0.00  0.00    +0.000 A 
ATOM     30  C   UNL     1      -8.798   0.467  25.169  0.00  0.00    +0.000 A 
ATOM     31  C   UNL     1      -8.881  -0.822  24.632  0.00  0.00    +0.000 A 
ATOM     32  C   UNL     1      -9.505  -1.054  23.400  0.00  0.00    +0.000 A 
ATOM     33  C   UNL     1     -10.002   0.056  22.703  0.00  0.00    +0.000 A 
ATOM     34  C   UNL     1      -9.901   1.350  23.241  0.00  0.00    +0.000 A 
ATOM     35  H   UNL     1      -8.335   0.568  26.147  0.00  0.00    +0.000 HD
ATOM     36  H   UNL     1      -8.461  -1.642  25.211  0.00  0.00    +0.000 HD
ATOM     37  H   UNL     1     -10.480  -0.058  21.732  0.00  0.00    +0.000 HD
ATOM     38  H   UNL     1     -10.321   2.171  22.662  0.00  0.00    +0.000 HD
BRANCH  29  39
ATOM     39  C   UNL     1      -9.172   3.005  25.085  0.00  0.00    +0.000 C 
BRANCH  39  40
ATOM     40  C   UNL     1      -9.610   4.101  24.084  0.00  0.00    +0.000 C 
ATOM     41  H   UNL     1     -10.050   4.961  24.603  0.00  0.00    +0.000 HD
ATOM     42  H   UNL     1     -10.360   3.716  23.383  0.00  0.00    +0.000 HD
ATOM     43  H   UNL     1      -8.770   4.494  23.501  0.00  0.00    +0.000 HD
ENDBRANCH  39  40
BRANCH  39  44
ATOM     44  C   UNL     1      -7.703   3.265  25.477  0.00  0.00    +0.000 C 
ATOM     45  H   UNL     1      -7.017   2.849  24.728  0.00  0.00    +0.000 HD
ATOM     46  H   UNL     1      -7.456   2.806  26.441  0.00  0.00    +0.000 HD
ATOM     47  H   UNL     1      -7.492   4.337  25.558  0.00  0.00    +0.000 HD
ENDBRANCH  39  44
BRANCH  39  48
ATOM     48  C   UNL     1     -10.053   3.194  26.342  0.00  0.00    +0.000 C 
ATOM     49  H   UNL     1      -9.463   3.587  27.179  0.00  0.00    +0.000 HD
ATOM     50  H   UNL     1     -10.494   2.254  26.690  0.00  0.00    +0.000 HD
ATOM     51  H   UNL     1     -10.868   3.902  26.150  0.00  0.00    +0.000 HD
ENDBRANCH  39  48
ENDBRANCH  29  39
ENDBRANCH  26  32
ENDBRANCH   1  26
BRANCH   7  52
ATOM     52  N   UNL     1      -8.953  -9.560  20.022  0.00  0.00    +0.000 N 
ATOM     53  H   UNL     1      -9.831 -10.058  20.121  0.00  0.00    +0.000 HD
ATOM     54  H   UNL     1      -8.280 -10.117  19.494  0.00  0.00    +0.000 HD
ENDBRANCH   7  52
TORSDOF 7
ENDMDL
MODEL 5
REMARK VINA RESULT:    -7.788      2.696      9.719
REMARK INTER + INTRA:         -10.511
REMARK INTER:                 -10.079
REMARK INTRA:                  -0.432
REMARK UNBOUND:                -0.446
REMARK  Name = 
REMARK  7 active torsions:
REMARK  status: ('A' for Active; 'I' for Inactive)
REMARK    1  A    between atoms: C_1  and  C_2
REMARK    2  A    between atoms: C_2  and  C_3
REMARK    3  A    between atoms: C_2  and  C_4
REMARK    4  A    between atoms: C_2  and  C_5
REMARK    5  A    between atoms: C_8  and  C_9
REMARK    6  A    between atoms: C_9  and  N_10
REMARK    7  A    between atoms: C_16  and  N_17
REMARK                            x       y       z     vdW  Elec       q    Type
REMARK                         _______ _______ _______ _____ _____    ______ ____
ROOT
ATOM      1  N   UNL     1      -8.980  -6.842  18.885  0.00  0.00    +0.000 N 
ATOM      2  C   UNL     1     -10.087  -5.906  18.379  0.00  0.00    +0.000 C 
ATOM      3  C   UNL     1      -9.616  -4.462  18.142  0.00  0.00    +0.000 C 
ATOM      4  N   UNL     1      -8.847  -3.993  19.286  0.00  0.00    +0.000 N 
ATOM      5  C   UNL     1      -9.275  -3.049  20.192  0.00  0.00    +0.000 A 
ATOM      6  C   UNL     1     -10.599  -2.687  20.347  0.00  0.00    +0.000 A 
ATOM      7  C   UNL     1     -10.889  -1.694  21.259  0.00  0.00    +0.000 A 
ATOM      8  N   UNL     1      -9.952  -1.069  21.960  0.00  0.00    +0.000 NA
ATOM      9  C   UNL     1      -8.700  -1.481  21.780  0.00  0.00    +0.000 A 
ATOM     10  N   UNL     1      -7.705  -0.815  22.466  0.00  0.00    +0.000 N 
ATOM     11  N   UNL     1      -8.328  -2.453  20.944  0.00  0.00    +0.000 NA
ATOM     12  C   UNL     1      -7.629  -4.759  19.560  0.00  0.00    +0.000 C 
ATOM     13  C   UNL     1      -8.006  -6.217  19.896  0.00  0.00    +0.000 C 
ATOM     14  H   UNL     1      -8.406  -7.063  18.062  0.00  0.00    +0.000 HD
ATOM     15  H   UNL     1     -10.881  -5.885  19.123  0.00  0.00    +0.000 HD
ATOM     16  H   UNL     1     -10.460  -6.346  17.447  0.00  0.00    +0.000 HD
ATOM     17  H   UNL     1     -10.475  -3.823  17.913  0.00  0.00    +0.000 HD
ATOM     18  H   UNL     1      -8.974  -4.429  17.254  0.00  0.00    +0.000 HD
ATOM     19  H   UNL     1     -11.402  -3.145  19.789  0.00  0.00    +0.000 HD
ATOM     20  H   UNL     1      -8.038   0.107  22.720  0.00  0.00    +0.000 HD
ATOM     21  H   UNL     1      -6.845  -0.846  21.935  0.00  0.00    +0.000 HD
ATOM     22  H   UNL     1      -7.026  -4.361  20.383  0.00  0.00    +0.000 HD
ATOM     23  H   UNL     1      -6.991  -4.739  18.670  0.00  0.00    +0.000 HD
ATOM     24  H   UNL     1      -8.476  -6.258  20.879  0.00  0.00    +0.000 HD
ATOM     25  H   UNL     1      -7.112  -6.851  19.888  0.00  0.00    +0.000 HD
ENDROOT
BRANCH   1  26
ATOM     26  C   UNL     1      -9.534  -8.175  19.387  0.00  0.00    +0.000 C 
ATOM     27  H   UNL     1      -9.134  -8.305  20.401  0.00  0.00    +0.000 HD
ATOM     28  H   UNL     1     -10.618  -8.051  19.490  0.00  0.00    +0.000 HD
BRANCH  26  32
ATOM     29  C   UNL     1      -8.725 -11.711  16.941  0.00  0.00    +0.000 A 
ATOM     30  C   UNL     1      -9.371 -10.577  16.424  0.00  0.00    +0.000 A 
ATOM     31  C   UNL     1      -9.585  -9.431  17.198  0.00  0.00    +0.000 A 
ATOM     32  C   UNL     1      -9.207  -9.388  18.546  0.00  0.00    +0.000 A 
ATOM     33  C   UNL     1      -8.564 -10.514  19.078  0.00  0.00    +0.000 A 
ATOM     34  C   UNL     1      -8.338 -11.655  18.291  0.00  0.00    +0.000 A 
ATOM     35  H   UNL     1      -9.724 -10.556  15.396  0.00  0.00    +0.000 HD
ATOM     36  H   UNL     1     -10.072  -8.582  16.724  0.00  0.00    +0.000 HD
ATOM     37  H   UNL     1      -8.230 -10.532  20.114  0.00  0.00    +0.000 HD
ATOM     38  H   UNL     1      -7.850 -12.506  18.765  0.00  0.00    +0.000 HD
BRANCH  29  39
ATOM     39  C   UNL     1      -8.484 -12.960  16.067  0.00  0.00    +0.000 C 
BRANCH  39  40
ATOM     40  C   UNL     1      -6.984 -13.163  15.742  0.00  0.00    +0.000 C 
ATOM     41  H   UNL     1      -6.711 -12.673  14.800  0.00  0.00    +0.000 HD
ATOM     42  H   UNL     1      -6.744 -14.228  15.645  0.00  0.00    +0.000 HD
ATOM     43  H   UNL     1      -6.330 -12.735  16.508  0.00  0.00    +0.000 HD
ENDBRANCH  39  40
BRANCH  39  44
ATOM     44  C   UNL     1      -9.250 -12.796  14.738  0.00  0.00    +0.000 C 
ATOM     45  H   UNL     1     -10.020 -12.018  14.821  0.00  0.00    +0.000 HD
ATOM     46  H   UNL     1      -9.753 -13.725  14.447  0.00  0.00    +0.000 HD
ATOM     47  H   UNL     1      -8.580 -12.512  13.920  0.00  0.00    +0.000 HD
ENDBRANCH  39  44
BRANCH  39  48
ATOM     48  C   UNL     1      -8.957 -14.266  16.745  0.00  0.00    +0.000 C 
ATOM     49  H   UNL     1      -8.600 -14.322  17.781  0.00  0.00    +0.000 HD
ATOM     50  H   UNL     1      -8.578 -15.162  16.240  0.00  0.00    +0.000 HD
ATOM     51  H   UNL     1     -10.051 -14.327  16.768  0.00  0.00    +0.000 HD
ENDBRANCH  39  48
ENDBRANCH  29  39
ENDBRANCH  26  32
ENDBRANCH   1  26
BRANCH   7  52
ATOM     52  N   UNL     1     -12.205  -1.272  21.449  0.00  0.00    +0.000 N 
ATOM     53  H   UNL     1     -12.584  -0.800  20.636  0.00  0.00    +0.000 HD
ATOM     54  H   UNL     1     -12.758  -2.099  21.676  0.00  0.00    +0.000 HD
ENDBRANCH   7  52
TORSDOF 7
ENDMDL
MODEL 6
REMARK VINA RESULT:    -7.779      5.198      9.242
REMARK INTER + INTRA:         -10.499
REMARK INTER:                 -10.053
REMARK INTRA:                  -0.446
REMARK UNBOUND:                -0.446
REMARK  Name = 
REMARK  7 active torsions:
REMARK  status: ('A' for Active; 'I' for Inactive)
REMARK    1  A    between atoms: C_1  and  C_2
REMARK    2  A    between atoms: C_2  and  C_3
REMARK    3  A    between atoms: C_2  and  C_4
REMARK    4  A    between atoms: C_2  and  C_5
REMARK    5  A    between atoms: C_8  and  C_9
REMARK    6  A    between atoms: C_9  and  N_10
REMARK    7  A    between atoms: C_16  and  N_17
REMARK                            x       y       z     vdW  Elec       q    Type
REMARK                         _______ _______ _______ _____ _____    ______ ____
ROOT
ATOM      1  N   UNL     1     -10.358  -6.690  16.353  0.00  0.00    +0.000 N 
ATOM      2  C   UNL     1     -11.499  -5.677  16.518  0.00  0.00    +0.000 C 
ATOM      3  C   UNL     1     -11.780  -4.850  15.253  0.00  0.00    +0.000 C 
ATOM      4  N   UNL     1     -10.533  -4.335  14.705  0.00  0.00    +0.000 N 
ATOM      5  C   UNL     1     -10.145  -3.014  14.733  0.00  0.00    +0.000 A 
ATOM      6  C   UNL     1     -10.701  -2.074  15.579  0.00  0.00    +0.000 A 
ATOM      7  C   UNL     1     -10.253  -0.774  15.473  0.00  0.00    +0.000 A 
ATOM      8  N   UNL     1      -9.341  -0.399  14.585  0.00  0.00    +0.000 NA
ATOM      9  C   UNL     1      -8.831  -1.357  13.817  0.00  0.00    +0.000 A 
ATOM     10  N   UNL     1      -7.913  -0.983  12.856  0.00  0.00    +0.000 N 
ATOM     11  N   UNL     1      -9.179  -2.645  13.868  0.00  0.00    +0.000 NA
ATOM     12  C   UNL     1      -9.574  -5.362  14.293  0.00  0.00    +0.000 C 
ATOM     13  C   UNL     1      -9.161  -6.199  15.522  0.00  0.00    +0.000 C 
ATOM     14  H   UNL     1     -10.755  -7.470  15.817  0.00  0.00    +0.000 HD
ATOM     15  H   UNL     1     -11.231  -4.989  17.318  0.00  0.00    +0.000 HD
ATOM     16  H   UNL     1     -12.386  -6.255  16.804  0.00  0.00    +0.000 HD
ATOM     17  H   UNL     1     -12.507  -4.063  15.475  0.00  0.00    +0.000 HD
ATOM     18  H   UNL     1     -12.253  -5.489  14.498  0.00  0.00    +0.000 HD
ATOM     19  H   UNL     1     -11.461  -2.316  16.306  0.00  0.00    +0.000 HD
ATOM     20  H   UNL     1      -8.039  -0.000  12.644  0.00  0.00    +0.000 HD
ATOM     21  H   UNL     1      -7.966  -1.617  12.069  0.00  0.00    +0.000 HD
ATOM     22  H   UNL     1      -8.667  -4.966  13.826  0.00  0.00    +0.000 HD
ATOM     23  H   UNL     1     -10.049  -6.010  13.548  0.00  0.00    +0.000 HD
ATOM     24  H   UNL     1      -8.525  -5.603  16.176  0.00  0.00    +0.000 HD
ATOM     25  H   UNL     1      -8.623  -7.099  15.204  0.00  0.00    +0.000 HD
ENDROOT
BRANCH   1  26
ATOM     26  C   UNL     1      -9.909  -7.278  17.691  0.00  0.00    +0.000 C 
ATOM     27  H   UNL     1      -9.008  -6.722  17.978  0.00  0.00    +0.000 HD
ATOM     28  H   UNL     1     -10.682  -7.026  18.426  0.00  0.00    +0.000 HD
BRANCH  26  32
ATOM     29  C   UNL     1      -8.944 -11.545  17.701  0.00  0.00    +0.000 A 
ATOM     30  C   UNL     1      -8.546 -10.688  18.738  0.00  0.00    +0.000 A 
ATOM     31  C   UNL     1      -8.898  -9.333  18.753  0.00  0.00    +0.000 A 
ATOM     32  C   UNL     1      -9.622  -8.763  17.699  0.00  0.00    +0.000 A 
ATOM     33  C   UNL     1     -10.023  -9.606  16.653  0.00  0.00    +0.000 A 
ATOM     34  C   UNL     1      -9.681 -10.968  16.653  0.00  0.00    +0.000 A 
ATOM     35  H   UNL     1      -7.950 -11.055  19.570  0.00  0.00    +0.000 HD
ATOM     36  H   UNL     1      -8.574  -8.734  19.600  0.00  0.00    +0.000 HD
ATOM     37  H   UNL     1     -10.605  -9.224  15.817  0.00  0.00    +0.000 HD
ATOM     38  H   UNL     1     -10.005 -11.569  15.805  0.00  0.00    +0.000 HD
BRANCH  29  39
ATOM     39  C   UNL     1      -8.559 -13.040  17.711  0.00  0.00    +0.000 C 
BRANCH  39  40
ATOM     40  C   UNL     1      -7.308 -13.314  18.582  0.00  0.00    +0.000 C 
ATOM     41  H   UNL     1      -6.387 -13.058  18.047  0.00  0.00    +0.000 HD
ATOM     42  H   UNL     1      -7.248 -14.372  18.861  0.00  0.00    +0.000 HD
ATOM     43  H   UNL     1      -7.302 -12.718  19.501  0.00  0.00    +0.000 HD
ENDBRANCH  39  40
BRANCH  39  44
ATOM     44  C   UNL     1      -8.251 -13.487  16.268  0.00  0.00    +0.000 C 
ATOM     45  H   UNL     1      -8.297 -14.580  16.177  0.00  0.00    +0.000 HD
ATOM     46  H   UNL     1      -7.249 -13.173  15.954  0.00  0.00    +0.000 HD
ATOM     47  H   UNL     1      -8.968 -13.067  15.554  0.00  0.00    +0.000 HD
ENDBRANCH  39  44
BRANCH  39  48
ATOM     48  C   UNL     1      -9.680 -13.944  18.274  0.00  0.00    +0.000 C 
ATOM     49  H   UNL     1      -9.476 -14.219  19.316  0.00  0.00    +0.000 HD
ATOM     50  H   UNL     1      -9.779 -14.884  17.720  0.00  0.00    +0.000 HD
ATOM     51  H   UNL     1     -10.649 -13.432  18.251  0.00  0.00    +0.000 HD
ENDBRANCH  39  48
ENDBRANCH  29  39
ENDBRANCH  26  32
ENDBRANCH   1  26
BRANCH   7  52
ATOM     52  N   UNL     1     -10.787   0.225  16.288  0.00  0.00    +0.000 N 
ATOM     53  H   UNL     1     -11.489  -0.129  16.929  0.00  0.00    +0.000 HD
ATOM     54  H   UNL     1     -10.011   0.646  16.798  0.00  0.00    +0.000 HD
ENDBRANCH   7  52
TORSDOF 7
ENDMDL
MODEL 7
REMARK VINA RESULT:    -7.532      3.713      9.929
REMARK INTER + INTRA:         -10.180
REMARK INTER:                  -9.726
REMARK INTRA:                  -0.454
REMARK UNBOUND:                -0.446
REMARK  Name = 
REMARK  7 active torsions:
REMARK  status: ('A' for Active; 'I' for Inactive)
REMARK    1  A    between atoms: C_1  and  C_2
REMARK    2  A    between atoms: C_2  and  C_3
REMARK    3  A    between atoms: C_2  and  C_4
REMARK    4  A    between atoms: C_2  and  C_5
REMARK    5  A    between atoms: C_8  and  C_9
REMARK    6  A    between atoms: C_9  and  N_10
REMARK    7  A    between atoms: C_16  and  N_17
REMARK                            x       y       z     vdW  Elec       q    Type
REMARK                         _______ _______ _______ _____ _____    ______ ____
ROOT
ATOM      1  N   UNL     1      -9.767  -7.631  16.865  0.00  0.00    +0.000 N 
ATOM      2  C   UNL     1     -11.069  -7.325  17.620  0.00  0.00    +0.000 C 
ATOM      3  C   UNL     1     -11.853  -6.136  17.042  0.00  0.00    +0.000 C 
ATOM      4  N   UNL     1     -10.958  -5.010  16.816  0.00  0.00    +0.000 N 
ATOM      5  C   UNL     1     -10.949  -3.848  17.554  0.00  0.00    +0.000 A 
ATOM      6  C   UNL     1     -11.523  -3.735  18.805  0.00  0.00    +0.000 A 
ATOM      7  C   UNL     1     -11.484  -2.502  19.419  0.00  0.00    +0.000 A 
ATOM      8  N   UNL     1     -10.943  -1.433  18.847  0.00  0.00    +0.000 NA
ATOM      9  C   UNL     1     -10.387  -1.615  17.653  0.00  0.00    +0.000 A 
ATOM     10  N   UNL     1      -9.859  -0.508  17.019  0.00  0.00    +0.000 N 
ATOM     11  N   UNL     1     -10.351  -2.776  16.995  0.00  0.00    +0.000 NA
ATOM     12  C   UNL     1      -9.882  -5.267  15.857  0.00  0.00    +0.000 C 
ATOM     13  C   UNL     1      -8.980  -6.399  16.392  0.00  0.00    +0.000 C 
ATOM     14  H   UNL     1     -10.052  -8.114  16.005  0.00  0.00    +0.000 HD
ATOM     15  H   UNL     1     -10.817  -7.094  18.653  0.00  0.00    +0.000 HD
ATOM     16  H   UNL     1     -11.672  -8.240  17.578  0.00  0.00    +0.000 HD
ATOM     17  H   UNL     1     -12.693  -5.890  17.699  0.00  0.00    +0.000 HD
ATOM     18  H   UNL     1     -12.299  -6.425  16.083  0.00  0.00    +0.000 HD
ATOM     19  H   UNL     1     -11.996  -4.564  19.310  0.00  0.00    +0.000 HD
ATOM     20  H   UNL     1     -10.293   0.326  17.396  0.00  0.00    +0.000 HD
ATOM     21  H   UNL     1      -9.921  -0.626  16.017  0.00  0.00    +0.000 HD
ATOM     22  H   UNL     1      -9.253  -4.396  15.646  0.00  0.00    +0.000 HD
ATOM     23  H   UNL     1     -10.324  -5.568  14.900  0.00  0.00    +0.000 HD
ATOM     24  H   UNL     1      -8.394  -6.035  17.235  0.00  0.00    +0.000 HD
ATOM     25  H   UNL     1      -8.308  -6.754  15.602  0.00  0.00    +0.000 HD
ENDROOT
BRANCH   1  26
ATOM     26  C   UNL     1      -8.874  -8.610  17.627  0.00  0.00    +0.000 C 
ATOM     27  H   UNL     1      -7.858  -8.202  17.566  0.00  0.00    +0.000 HD
ATOM     28  H   UNL     1      -9.171  -8.559  18.681  0.00  0.00    +0.000 HD
BRANCH  26  32
ATOM     29  C   UNL     1      -8.772 -12.757  16.236  0.00  0.00    +0.000 A 
ATOM     30  C   UNL     1      -8.652 -12.422  17.593  0.00  0.00    +0.000 A 
ATOM     31  C   UNL     1      -8.732 -11.097  18.037  0.00  0.00    +0.000 A 
ATOM     32  C   UNL     1      -8.885 -10.039  17.133  0.00  0.00    +0.000 A 
ATOM     33  C   UNL     1      -9.002 -10.357  15.773  0.00  0.00    +0.000 A 
ATOM     34  C   UNL     1      -8.937 -11.690  15.335  0.00  0.00    +0.000 A 
ATOM     35  H   UNL     1      -8.494 -13.189  18.346  0.00  0.00    +0.000 HD
ATOM     36  H   UNL     1      -8.653 -10.915  19.107  0.00  0.00    +0.000 HD
ATOM     37  H   UNL     1      -9.142  -9.579  15.025  0.00  0.00    +0.000 HD
ATOM     38  H   UNL     1      -9.017 -11.874  14.265  0.00  0.00    +0.000 HD
BRANCH  29  39
ATOM     39  C   UNL     1      -8.696 -14.225  15.767  0.00  0.00    +0.000 C 
BRANCH  39  40
ATOM     40  C   UNL     1      -9.183 -15.211  16.858  0.00  0.00    +0.000 C 
ATOM     41  H   UNL     1      -8.365 -15.499  17.528  0.00  0.00    +0.000 HD
ATOM     42  H   UNL     1      -9.585 -16.127  16.409  0.00  0.00    +0.000 HD
ATOM     43  H   UNL     1      -9.960 -14.776  17.496  0.00  0.00    +0.000 HD
ENDBRANCH  39  40
BRANCH  39  44
ATOM     44  C   UNL     1      -7.232 -14.567  15.424  0.00  0.00    +0.000 C 
ATOM     45  H   UNL     1      -6.846 -13.901  14.642  0.00  0.00    +0.000 HD
ATOM     46  H   UNL     1      -7.135 -15.595  15.059  0.00  0.00    +0.000 HD
ATOM     47  H   UNL     1      -6.580 -14.463  16.298  0.00  0.00    +0.000 HD
ENDBRANCH  39  44
BRANCH  39  48
ATOM     48  C   UNL     1      -9.567 -14.502  14.520  0.00  0.00    +0.000 C 
ATOM     49  H   UNL     1     -10.090 -13.593  14.196  0.00  0.00    +0.000 HD
ATOM     50  H   UNL     1     -10.343 -15.253  14.708  0.00  0.00    +0.000 HD
ATOM     51  H   UNL     1      -8.955 -14.849  13.679  0.00  0.00    +0.000 HD
ENDBRANCH  39  48
ENDBRANCH  29  39
ENDBRANCH  26  32
ENDBRANCH   1  26
BRANCH   7  52
ATOM     52  N   UNL     1     -12.062  -2.319  20.676  0.00  0.00    +0.000 N 
ATOM     53  H   UNL     1     -12.403  -3.185  21.077  0.00  0.00    +0.000 HD
ATOM     54  H   UNL     1     -11.353  -1.897  21.276  0.00  0.00    +0.000 HD
ENDBRANCH   7  52
TORSDOF 7
ENDMDL
MODEL 8
REMARK VINA RESULT:    -7.435      3.858      9.268
REMARK INTER + INTRA:         -10.054
REMARK INTER:                  -9.661
REMARK INTRA:                  -0.393
REMARK UNBOUND:                -0.446
REMARK  Name = 
REMARK  7 active torsions:
REMARK  status: ('A' for Active; 'I' for Inactive)
REMARK    1  A    between atoms: C_1  and  C_2
REMARK    2  A    between atoms: C_2  and  C_3
REMARK    3  A    between atoms: C_2  and  C_4
REMARK    4  A    between atoms: C_2  and  C_5
REMARK    5  A    between atoms: C_8  and  C_9
REMARK    6  A    between atoms: C_9  and  N_10
REMARK    7  A    between atoms: C_16  and  N_17
REMARK                            x       y       z     vdW  Elec       q    Type
REMARK                         _______ _______ _______ _____ _____    ______ ____
ROOT
ATOM      1  N   UNL     1      -8.860  -4.377  19.876  0.00  0.00    +0.000 N 
ATOM      2  C   UNL     1      -8.362  -3.145  20.645  0.00  0.00    +0.000 C 
ATOM      3  C   UNL     1      -9.460  -2.106  20.925  0.00  0.00    +0.000 C 
ATOM      4  N   UNL     1     -10.223  -1.846  19.712  0.00  0.00    +0.000 N 
ATOM      5  C   UNL     1     -10.169  -0.680  18.981  0.00  0.00    +0.000 A 
ATOM      6  C   UNL     1      -9.145   0.240  19.088  0.00  0.00    +0.000 A 
ATOM      7  C   UNL     1      -9.236   1.389  18.332  0.00  0.00    +0.000 A 
ATOM      8  N   UNL     1     -10.268   1.646  17.538  0.00  0.00    +0.000 NA
ATOM      9  C   UNL     1     -11.208   0.708  17.463  0.00  0.00    +0.000 A 
ATOM     10  N   UNL     1     -12.313   0.974  16.679  0.00  0.00    +0.000 N 
ATOM     11  N   UNL     1     -11.191  -0.446  18.134  0.00  0.00    +0.000 NA
ATOM     12  C   UNL     1     -10.922  -3.011  19.166  0.00  0.00    +0.000 C 
ATOM     13  C   UNL     1      -9.889  -4.088  18.772  0.00  0.00    +0.000 C 
ATOM     14  H   UNL     1      -9.360  -4.951  20.565  0.00  0.00    +0.000 HD
ATOM     15  H   UNL     1      -7.586  -2.665  20.053  0.00  0.00    +0.000 HD
ATOM     16  H   UNL     1      -7.939  -3.519  21.584  0.00  0.00    +0.000 HD
ATOM     17  H   UNL     1      -9.017  -1.202  21.354  0.00  0.00    +0.000 HD
ATOM     18  H   UNL     1     -10.143  -2.495  21.689  0.00  0.00    +0.000 HD
ATOM     19  H   UNL     1      -8.291   0.096  19.733  0.00  0.00    +0.000 HD
ATOM     20  H   UNL     1     -12.407   1.976  16.569  0.00  0.00    +0.000 HD
ATOM     21  H   UNL     1     -13.119   0.490  17.050  0.00  0.00    +0.000 HD
ATOM     22  H   UNL     1     -11.542  -2.791  18.291  0.00  0.00    +0.000 HD
ATOM     23  H   UNL     1     -11.596  -3.410  19.932  0.00  0.00    +0.000 HD
ATOM     24  H   UNL     1      -9.344  -3.767  17.884  0.00  0.00    +0.000 HD
ATOM     25  H   UNL     1     -10.393  -5.041  18.570  0.00  0.00    +0.000 HD
ENDROOT
BRANCH   1  26
ATOM     26  C   UNL     1      -7.709  -5.241  19.359  0.00  0.00    +0.000 C 
ATOM     27  H   UNL     1      -7.127  -4.597  18.689  0.00  0.00    +0.000 HD
ATOM     28  H   UNL     1      -7.066  -5.462  20.219  0.00  0.00    +0.000 HD
BRANCH  26  32
ATOM     29  C   UNL     1      -8.960  -8.848  17.224  0.00  0.00    +0.000 A 
ATOM     30  C   UNL     1      -8.501  -7.704  16.552  0.00  0.00    +0.000 A 
ATOM     31  C   UNL     1      -8.058  -6.570  17.242  0.00  0.00    +0.000 A 
ATOM     32  C   UNL     1      -8.104  -6.511  18.640  0.00  0.00    +0.000 A 
ATOM     33  C   UNL     1      -8.563  -7.644  19.326  0.00  0.00    +0.000 A 
ATOM     34  C   UNL     1      -8.991  -8.785  18.627  0.00  0.00    +0.000 A 
ATOM     35  H   UNL     1      -8.474  -7.667  15.466  0.00  0.00    +0.000 HD
ATOM     36  H   UNL     1      -7.696  -5.729  16.656  0.00  0.00    +0.000 HD
ATOM     37  H   UNL     1      -8.603  -7.664  20.413  0.00  0.00    +0.000 HD
ATOM     38  H   UNL     1      -9.354  -9.628  19.214  0.00  0.00    +0.000 HD
BRANCH  29  39
ATOM     39  C   UNL     1      -9.429 -10.095  16.445  0.00  0.00    +0.000 C 
BRANCH  39  40
ATOM     40  C   UNL     1      -8.550 -10.370  15.200  0.00  0.00    +0.000 C 
ATOM     41  H   UNL     1      -8.008 -11.317  15.297  0.00  0.00    +0.000 HD
ATOM     42  H   UNL     1      -7.808  -9.574  15.060  0.00  0.00    +0.000 HD
ATOM     43  H   UNL     1      -9.141 -10.449  14.282  0.00  0.00    +0.000 HD
ENDBRANCH  39  40
BRANCH  39  44
ATOM     44  C   UNL     1     -10.881  -9.874  15.974  0.00  0.00    +0.000 C 
ATOM     45  H   UNL     1     -11.374  -9.095  16.570  0.00  0.00    +0.000 HD
ATOM     46  H   UNL     1     -11.478 -10.788  16.070  0.00  0.00    +0.000 HD
ATOM     47  H   UNL     1     -10.921  -9.561  14.925  0.00  0.00    +0.000 HD
ENDBRANCH  39  44
BRANCH  39  48
ATOM     48  C   UNL     1      -9.383 -11.385  17.296  0.00  0.00    +0.000 C 
ATOM     49  H   UNL     1      -9.920 -11.250  18.243  0.00  0.00    +0.000 HD
ATOM     50  H   UNL     1      -8.361 -11.677  17.560  0.00  0.00    +0.000 HD
ATOM     51  H   UNL     1      -9.851 -12.224  16.767  0.00  0.00    +0.000 HD
ENDBRANCH  39  48
ENDBRANCH  29  39
ENDBRANCH  26  32
ENDBRANCH   1  26
BRANCH   7  52
ATOM     52  N   UNL     1      -8.242   2.365  18.408  0.00  0.00    +0.000 N 
ATOM     53  H   UNL     1      -7.364   2.060  18.002  0.00  0.00    +0.000 HD
ATOM     54  H   UNL     1      -8.593   3.194  17.927  0.00  0.00    +0.000 HD
ENDBRANCH   7  52
TORSDOF 7
ENDMDL
MODEL 9
REMARK VINA RESULT:    -7.430      4.430     10.369
REMARK INTER + INTRA:         -10.049
REMARK INTER:                  -9.735
REMARK INTRA:                  -0.314
REMARK UNBOUND:                -0.446
REMARK  Name = 
REMARK  7 active torsions:
REMARK  status: ('A' for Active; 'I' for Inactive)
REMARK    1  A    between atoms: C_1  and  C_2
REMARK    2  A    between atoms: C_2  and  C_3
REMARK    3  A    between atoms: C_2  and  C_4
REMARK    4  A    between atoms: C_2  and  C_5
REMARK    5  A    between atoms: C_8  and  C_9
REMARK    6  A    between atoms: C_9  and  N_10
REMARK    7  A    between atoms: C_16  and  N_17
REMARK                            x       y       z     vdW  Elec       q    Type
REMARK                         _______ _______ _______ _____ _____    ______ ____
ROOT
ATOM      1  N   UNL     1      -8.779  -3.208  22.025  0.00  0.00    +0.000 N 
ATOM      2  C   UNL     1      -8.191  -2.829  23.391  0.00  0.00    +0.000 C 
ATOM      3  C   UNL     1      -9.185  -2.100  24.310  0.00  0.00    +0.000 C 
ATOM      4  N   UNL     1      -9.856  -1.036  23.578  0.00  0.00    +0.000 N 
ATOM      5  C   UNL     1      -9.645   0.311  23.771  0.00  0.00    +0.000 A 
ATOM      6  C   UNL     1      -8.535   0.823  24.415  0.00  0.00    +0.000 A 
ATOM      7  C   UNL     1      -8.467   2.190  24.583  0.00  0.00    +0.000 A 
ATOM      8  N   UNL     1      -9.427   3.011  24.176  0.00  0.00    +0.000 NA
ATOM      9  C   UNL     1     -10.456   2.456  23.543  0.00  0.00    +0.000 A 
ATOM     10  N   UNL     1     -11.487   3.286  23.151  0.00  0.00    +0.000 N 
ATOM     11  N   UNL     1     -10.594   1.149  23.309  0.00  0.00    +0.000 NA
ATOM     12  C   UNL     1     -10.647  -1.487  22.431  0.00  0.00    +0.000 C 
ATOM     13  C   UNL     1      -9.717  -2.162  21.401  0.00  0.00    +0.000 C 
ATOM     14  H   UNL     1      -9.369  -4.030  22.196  0.00  0.00    +0.000 HD
ATOM     15  H   UNL     1      -7.341  -2.170  23.225  0.00  0.00    +0.000 HD
ATOM     16  H   UNL     1      -7.856  -3.764  23.853  0.00  0.00    +0.000 HD
ATOM     17  H   UNL     1      -8.670  -1.743  25.208  0.00  0.00    +0.000 HD
ATOM     18  H   UNL     1      -9.942  -2.810  24.664  0.00  0.00    +0.000 HD
ATOM     19  H   UNL     1      -7.734   0.202  24.787  0.00  0.00    +0.000 HD
ATOM     20  H   UNL     1     -11.469   4.125  23.718  0.00  0.00    +0.000 HD
ATOM     21  H   UNL     1     -12.357   2.771  23.147  0.00  0.00    +0.000 HD
ATOM     22  H   UNL     1     -11.198  -0.687  21.925  0.00  0.00    +0.000 HD
ATOM     23  H   UNL     1     -11.397  -2.207  22.779  0.00  0.00    +0.000 HD
ATOM     24  H   UNL     1      -9.098  -1.408  20.915  0.00  0.00    +0.000 HD
ATOM     25  H   UNL     1     -10.308  -2.696  20.648  0.00  0.00    +0.000 HD
ENDROOT
BRANCH   1  26
ATOM     26  C   UNL     1      -7.702  -3.656  21.037  0.00  0.00    +0.000 C 
ATOM     27  H   UNL     1      -7.409  -2.757  20.481  0.00  0.00    +0.000 HD
ATOM     28  H   UNL     1      -6.830  -3.957  21.630  0.00  0.00    +0.000 HD
BRANCH  26  32
ATOM     29  C   UNL     1      -8.987  -6.808  18.289  0.00  0.00    +0.000 A 
ATOM     30  C   UNL     1      -9.374  -5.470  18.122  0.00  0.00    +0.000 A 
ATOM     31  C   UNL     1      -8.921  -4.459  18.977  0.00  0.00    +0.000 A 
ATOM     32  C   UNL     1      -8.100  -4.751  20.073  0.00  0.00    +0.000 A 
ATOM     33  C   UNL     1      -7.708  -6.085  20.255  0.00  0.00    +0.000 A 
ATOM     34  C   UNL     1      -8.153  -7.092  19.384  0.00  0.00    +0.000 A 
ATOM     35  H   UNL     1     -10.040  -5.177  17.315  0.00  0.00    +0.000 HD
ATOM     36  H   UNL     1      -9.245  -3.440  18.774  0.00  0.00    +0.000 HD
ATOM     37  H   UNL     1      -7.055  -6.370  21.078  0.00  0.00    +0.000 HD
ATOM     38  H   UNL     1      -7.829  -8.112  19.587  0.00  0.00    +0.000 HD
BRANCH  29  39
ATOM     39  C   UNL     1      -9.484  -7.908  17.326  0.00  0.00    +0.000 C 
BRANCH  39  40
ATOM     40  C   UNL     1      -8.839  -7.789  15.924  0.00  0.00    +0.000 C 
ATOM     41  H   UNL     1      -9.446  -8.292  15.163  0.00  0.00    +0.000 HD
ATOM     42  H   UNL     1      -7.842  -8.245  15.910  0.00  0.00    +0.000 HD
ATOM     43  H   UNL     1      -8.742  -6.748  15.596  0.00  0.00    +0.000 HD
ENDBRANCH  39  40
BRANCH  39  44
ATOM     44  C   UNL     1     -11.013  -7.782  17.169  0.00  0.00    +0.000 C 
ATOM     45  H   UNL     1     -11.404  -6.956  17.777  0.00  0.00    +0.000 HD
ATOM     46  H   UNL     1     -11.526  -8.696  17.488  0.00  0.00    +0.000 HD
ATOM     47  H   UNL     1     -11.296  -7.589  16.129  0.00  0.00    +0.000 HD
ENDBRANCH  39  44
BRANCH  39  48
ATOM     48  C   UNL     1      -9.160  -9.334  17.827  0.00  0.00    +0.000 C 
ATOM     49  H   UNL     1      -8.223  -9.701  17.389  0.00  0.00    +0.000 HD
ATOM     50  H   UNL     1      -9.933 -10.061  17.554  0.00  0.00    +0.000 HD
ATOM     51  H   UNL     1      -9.046  -9.354  18.918  0.00  0.00    +0.000 HD
ENDBRANCH  39  48
ENDBRANCH  29  39
ENDBRANCH  26  32
ENDBRANCH   1  26
BRANCH   7  52
ATOM     52  N   UNL     1      -7.380   2.767  25.241  0.00  0.00    +0.000 N 
ATOM     53  H   UNL     1      -7.625   3.124  26.158  0.00  0.00    +0.000 HD
ATOM     54  H   UNL     1      -6.656   2.053  25.312  0.00  0.00    +0.000 HD
ENDBRANCH   7  52
TORSDOF 7
ENDMDL
