MODEL 1
REMARK VINA RESULT:   -10.238      0.000      0.000
REMARK INTER + INTRA:         -11.747
REMARK INTER:                 -12.333
REMARK INTRA:                   0.586
REMARK UNBOUND:                 0.586
REMARK  Name = 
REMARK  4 active torsions:
REMARK  status: ('A' for Active; 'I' for Inactive)
REMARK    1  A    between atoms: C_1  and  C_2
REMARK    2  A    between atoms: C_3  and  C_4
REMARK    3  A    between atoms: N_6  and  C_7
REMARK    4  A    between atoms: C_13  and  C_14
REMARK                            x       y       z     vdW  Elec       q    Type
REMARK                         _______ _______ _______ _____ _____    ______ ____
ROOT
ATOM      1  C   UNL     1     -10.638  -6.030  17.453  0.00  0.00    +0.000 C 
ATOM      2  C   UNL     1      -9.769  -6.327  18.459  0.00  0.00    +0.000 C 
ATOM      3  C   UNL     1      -9.108  -5.189  19.263  0.00  0.00    +0.000 C 
ATOM      4  N   UNL     1      -9.466  -3.860  18.761  0.00  0.00    +0.000 N 
ATOM      5  N   UNL     1      -9.079  -2.697  19.317  0.00  0.00    +0.000 NA
ATOM      6  C   UNL     1      -9.744  -1.819  18.559  0.00  0.00    +0.000 A 
ATOM      7  N   UNL     1     -10.559  -2.362  17.602  0.00  0.00    +0.000 NA
ATOM      8  C   UNL     1     -10.379  -3.647  17.765  0.00  0.00    +0.000 A 
ATOM      9  N   UNL     1     -10.935  -4.702  17.154  0.00  0.00    +0.000 N 
ATOM     10  H   UNL     1      -9.584  -5.229  20.250  0.00  0.00    +0.000 HD
ATOM     11  H   UNL     1      -9.641  -0.753  18.714  0.00  0.00    +0.000 HD
ATOM     12  H   UNL     1     -11.613  -4.528  16.416  0.00  0.00    +0.000 HD
ENDROOT
BRANCH   3  13
ATOM     13  C   UNL     1      -7.585  -5.298  19.395  0.00  0.00    +0.000 A 
ATOM     14  C   UNL     1      -6.829  -5.899  18.366  0.00  0.00    +0.000 A 
ATOM     15  C   UNL     1      -5.449  -6.062  18.486  0.00  0.00    +0.000 A 
ATOM     16  C   UNL     1      -4.788  -5.589  19.613  0.00  0.00    +0.000 A 
ATOM     17  C   UNL     1      -5.505  -4.957  20.625  0.00  0.00    +0.000 A 
ATOM     18  C   UNL     1      -6.893  -4.821  20.525  0.00  0.00    +0.000 A 
ATOM     19 BR   UNL     1      -7.761  -4.008  22.013  0.00  0.00    +0.000 Br
ATOM     20  H   UNL     1      -7.309  -6.280  17.466  0.00  0.00    +0.000 HD
ATOM     21  H   UNL     1      -4.891  -6.564  17.699  0.00  0.00    +0.000 HD
ATOM     22  H   UNL     1      -3.710  -5.712  19.705  0.00  0.00    +0.000 HD
ATOM     23  H   UNL     1      -4.971  -4.583  21.495  0.00  0.00    +0.000 HD
ENDBRANCH   3  13
BRANCH   1  24
ATOM     24  C   UNL     1     -11.383  -7.006  16.567  0.00  0.00    +0.000 C 
ATOM     25  H   UNL     1     -11.443  -6.741  15.512  0.00  0.00    +0.000 HD
ATOM     26  H   UNL     1     -12.409  -7.127  16.934  0.00  0.00    +0.000 HD
ATOM     27  H   UNL     1     -10.897  -7.988  16.611  0.00  0.00    +0.000 HD
ENDBRANCH   1  24
BRANCH   2  28
ATOM     28  C   UNL     1      -9.376  -7.747  18.801  0.00  0.00    +0.000 C 
ATOM     29  O   UNL     1      -9.239  -8.081  19.973  0.00  0.00    +0.000 OA
ATOM     30  N   UNL     1      -9.273  -8.606  17.721  0.00  0.00    +0.000 N 
ATOM     31  H   UNL     1      -9.469  -8.259  16.795  0.00  0.00    +0.000 HD
BRANCH  30  32
ATOM     32  C   UNL     1      -8.968  -9.987  17.740  0.00  0.00    +0.000 A 
ATOM     33  C   UNL     1      -8.499 -10.675  18.859  0.00  0.00    +0.000 A 
ATOM     34  C   UNL     1      -8.166 -12.031  18.767  0.00  0.00    +0.000 A 
ATOM     35  C   UNL     1      -8.311 -12.713  17.561  0.00  0.00    +0.000 A 
ATOM     36  C   UNL     1      -8.804 -12.042  16.445  0.00  0.00    +0.000 A 
ATOM     37  C   UNL     1      -9.131 -10.688  16.535  0.00  0.00    +0.000 A 
ATOM     38  H   UNL     1      -8.362 -10.186  19.818  0.00  0.00    +0.000 HD
ATOM     39  H   UNL     1      -7.785 -12.552  19.643  0.00  0.00    +0.000 HD
ATOM     40  H   UNL     1      -8.041 -13.763  17.492  0.00  0.00    +0.000 HD
ATOM     41  H   UNL     1      -8.930 -12.572  15.505  0.00  0.00    +0.000 HD
ATOM     42  H   UNL     1      -9.518 -10.193  15.649  0.00  0.00    +0.000 HD
ENDBRANCH  30  32
ENDBRANCH   2  28
TORSDOF 4
ENDMDL
MODEL 2
REMARK VINA RESULT:    -9.107      2.193      2.884
REMARK INTER + INTRA:         -10.384
REMARK INTER:                  -9.834
REMARK INTRA:                  -0.550
REMARK UNBOUND:                 0.586
REMARK  Name = 
REMARK  4 active torsions:
REMARK  status: ('A' for Active; 'I' for Inactive)
REMARK    1  A    between atoms: C_1  and  C_2
REMARK    2  A    between atoms: C_3  and  C_4
REMARK    3  A    between atoms: N_6  and  C_7
REMARK    4  A    between atoms: C_13  and  C_14
REMARK                            x       y       z     vdW  Elec       q    Type
REMARK                         _______ _______ _______ _____ _____    ______ ____
ROOT
ATOM      1  C   UNL     1     -10.042  -5.079  14.949  0.00  0.00    +0.000 C 
ATOM      2  C   UNL     1      -9.832  -5.861  16.045  0.00  0.00    +0.000 C 
ATOM      3  C   UNL     1     -10.378  -5.420  17.419  0.00  0.00    +0.000 C 
ATOM      4  N   UNL     1     -11.023  -4.105  17.374  0.00  0.00    +0.000 N 
ATOM      5  N   UNL     1     -11.637  -3.514  18.417  0.00  0.00    +0.000 NA
ATOM      6  C   UNL     1     -12.131  -2.417  17.832  0.00  0.00    +0.000 A 
ATOM      7  N   UNL     1     -11.908  -2.314  16.485  0.00  0.00    +0.000 NA
ATOM      8  C   UNL     1     -11.226  -3.399  16.221  0.00  0.00    +0.000 A 
ATOM      9  N   UNL     1     -10.753  -3.887  15.066  0.00  0.00    +0.000 N 
ATOM     10  H   UNL     1     -11.207  -6.108  17.626  0.00  0.00    +0.000 HD
ATOM     11  H   UNL     1     -12.677  -1.676  18.400  0.00  0.00    +0.000 HD
ATOM     12  H   UNL     1     -10.912  -3.350  14.217  0.00  0.00    +0.000 HD
ENDROOT
BRANCH   3  13
ATOM     13  C   UNL     1      -9.353  -5.454  18.556  0.00  0.00    +0.000 A 
ATOM     14  C   UNL     1      -8.521  -4.339  18.790  0.00  0.00    +0.000 A 
ATOM     15  C   UNL     1      -7.541  -4.365  19.781  0.00  0.00    +0.000 A 
ATOM     16  C   UNL     1      -7.399  -5.484  20.591  0.00  0.00    +0.000 A 
ATOM     17  C   UNL     1      -8.234  -6.584  20.409  0.00  0.00    +0.000 A 
ATOM     18  C   UNL     1      -9.196  -6.576  19.393  0.00  0.00    +0.000 A 
ATOM     19 BR   UNL     1     -10.218  -8.172  19.201  0.00  0.00    +0.000 Br
ATOM     20  H   UNL     1      -8.602  -3.440  18.179  0.00  0.00    +0.000 HD
ATOM     21  H   UNL     1      -6.883  -3.509  19.918  0.00  0.00    +0.000 HD
ATOM     22  H   UNL     1      -6.638  -5.504  21.369  0.00  0.00    +0.000 HD
ATOM     23  H   UNL     1      -8.118  -7.448  21.057  0.00  0.00    +0.000 HD
ENDBRANCH   3  13
BRANCH   1  24
ATOM     24  C   UNL     1      -9.592  -5.351  13.529  0.00  0.00    +0.000 C 
ATOM     25  H   UNL     1      -8.568  -5.704  13.415  0.00  0.00    +0.000 HD
ATOM     26  H   UNL     1      -9.692  -4.438  12.930  0.00  0.00    +0.000 HD
ATOM     27  H   UNL     1     -10.235  -6.115  13.079  0.00  0.00    +0.000 HD
ENDBRANCH   1  24
BRANCH   2  28
ATOM     28  C   UNL     1      -9.033  -7.144  15.988  0.00  0.00    +0.000 C 
ATOM     29  O   UNL     1      -7.825  -7.125  16.197  0.00  0.00    +0.000 OA
ATOM     30  N   UNL     1      -9.776  -8.291  15.769  0.00  0.00    +0.000 N 
ATOM     31  H   UNL     1     -10.777  -8.218  15.674  0.00  0.00    +0.000 HD
BRANCH  30  32
ATOM     32  C   UNL     1      -9.311  -9.625  15.711  0.00  0.00    +0.000 A 
ATOM     33  C   UNL     1      -8.860 -10.252  14.549  0.00  0.00    +0.000 A 
ATOM     34  C   UNL     1      -8.473 -11.597  14.576  0.00  0.00    +0.000 A 
ATOM     35  C   UNL     1      -8.523 -12.321  15.764  0.00  0.00    +0.000 A 
ATOM     36  C   UNL     1      -8.945 -11.697  16.935  0.00  0.00    +0.000 A 
ATOM     37  C   UNL     1      -9.336 -10.357  16.908  0.00  0.00    +0.000 A 
ATOM     38  H   UNL     1      -8.811  -9.732  13.598  0.00  0.00    +0.000 HD
ATOM     39  H   UNL     1      -8.141 -12.079  13.659  0.00  0.00    +0.000 HD
ATOM     40  H   UNL     1      -8.232 -13.368  15.778  0.00  0.00    +0.000 HD
ATOM     41  H   UNL     1      -8.975 -12.254  17.867  0.00  0.00    +0.000 HD
ATOM     42  H   UNL     1      -9.656  -9.896  17.838  0.00  0.00    +0.000 HD
ENDBRANCH  30  32
ENDBRANCH   2  28
TORSDOF 4
ENDMDL
MODEL 3
REMARK VINA RESULT:    -8.929      4.893      7.592
REMARK INTER + INTRA:         -10.169
REMARK INTER:                  -8.912
REMARK INTRA:                  -1.257
REMARK UNBOUND:                 0.586
REMARK  Name = 
REMARK  4 active torsions:
REMARK  status: ('A' for Active; 'I' for Inactive)
REMARK    1  A    between atoms: C_1  and  C_2
REMARK    2  A    between atoms: C_3  and  C_4
REMARK    3  A    between atoms: N_6  and  C_7
REMARK    4  A    between atoms: C_13  and  C_14
REMARK                            x       y       z     vdW  Elec       q    Type
REMARK                         _______ _______ _______ _____ _____    ______ ____
ROOT
ATOM      1  C   UNL     1     -10.483   1.604  21.581  0.00  0.00    +0.000 C 
ATOM      2  C   UNL     1     -10.542   0.302  21.980  0.00  0.00    +0.000 C 
ATOM      3  C   UNL     1      -9.982  -0.105  23.358  0.00  0.00    +0.000 C 
ATOM      4  N   UNL     1      -9.358   1.016  24.067  0.00  0.00    +0.000 N 
ATOM      5  N   UNL     1      -8.848   0.950  25.312  0.00  0.00    +0.000 NA
ATOM      6  C   UNL     1      -8.511   2.228  25.516  0.00  0.00    +0.000 A 
ATOM      7  N   UNL     1      -8.824   3.091  24.500  0.00  0.00    +0.000 NA
ATOM      8  C   UNL     1      -9.374   2.304  23.612  0.00  0.00    +0.000 A 
ATOM      9  N   UNL     1      -9.924   2.567  22.418  0.00  0.00    +0.000 N 
ATOM     10  H   UNL     1     -10.868  -0.332  23.965  0.00  0.00    +0.000 HD
ATOM     11  H   UNL     1      -8.032   2.542  26.434  0.00  0.00    +0.000 HD
ATOM     12  H   UNL     1      -9.929   3.531  22.092  0.00  0.00    +0.000 HD
ENDROOT
BRANCH   3  13
ATOM     13  C   UNL     1      -9.024  -1.299  23.334  0.00  0.00    +0.000 A 
ATOM     14  C   UNL     1      -7.759  -1.177  22.721  0.00  0.00    +0.000 A 
ATOM     15  C   UNL     1      -6.891  -2.265  22.635  0.00  0.00    +0.000 A 
ATOM     16  C   UNL     1      -7.245  -3.485  23.197  0.00  0.00    +0.000 A 
ATOM     17  C   UNL     1      -8.471  -3.622  23.843  0.00  0.00    +0.000 A 
ATOM     18  C   UNL     1      -9.360  -2.544  23.903  0.00  0.00    +0.000 A 
ATOM     19 BR   UNL     1     -11.033  -2.888  24.745  0.00  0.00    +0.000 Br
ATOM     20  H   UNL     1      -7.442  -0.237  22.271  0.00  0.00    +0.000 HD
ATOM     21  H   UNL     1      -5.937  -2.159  22.123  0.00  0.00    +0.000 HD
ATOM     22  H   UNL     1      -6.566  -4.333  23.134  0.00  0.00    +0.000 HD
ATOM     23  H   UNL     1      -8.729  -4.580  24.287  0.00  0.00    +0.000 HD
ENDBRANCH   3  13
BRANCH   1  24
ATOM     24  C   UNL     1     -10.983   2.187  20.276  0.00  0.00    +0.000 C 
ATOM     25  H   UNL     1     -11.432   1.479  19.581  0.00  0.00    +0.000 HD
ATOM     26  H   UNL     1     -10.156   2.681  19.753  0.00  0.00    +0.000 HD
ATOM     27  H   UNL     1     -11.747   2.946  20.481  0.00  0.00    +0.000 HD
ENDBRANCH   1  24
BRANCH   2  28
ATOM     28  C   UNL     1     -11.098  -0.794  21.098  0.00  0.00    +0.000 C 
ATOM     29  O   UNL     1     -12.227  -1.228  21.298  0.00  0.00    +0.000 OA
ATOM     30  N   UNL     1     -10.281  -1.178  20.049  0.00  0.00    +0.000 N 
ATOM     31  H   UNL     1      -9.393  -0.717  19.923  0.00  0.00    +0.000 HD
BRANCH  30  32
ATOM     32  C   UNL     1     -10.552  -2.138  19.047  0.00  0.00    +0.000 A 
ATOM     33  C   UNL     1     -11.493  -1.971  18.031  0.00  0.00    +0.000 A 
ATOM     34  C   UNL     1     -11.737  -3.002  17.117  0.00  0.00    +0.000 A 
ATOM     35  C   UNL     1     -11.035  -4.202  17.204  0.00  0.00    +0.000 A 
ATOM     36  C   UNL     1     -10.073  -4.368  18.197  0.00  0.00    +0.000 A 
ATOM     37  C   UNL     1      -9.834  -3.342  19.112  0.00  0.00    +0.000 A 
ATOM     38  H   UNL     1     -12.071  -1.058  17.927  0.00  0.00    +0.000 HD
ATOM     39  H   UNL     1     -12.486  -2.866  16.340  0.00  0.00    +0.000 HD
ATOM     40  H   UNL     1     -11.235  -5.004  16.498  0.00  0.00    +0.000 HD
ATOM     41  H   UNL     1      -9.515  -5.297  18.262  0.00  0.00    +0.000 HD
ATOM     42  H   UNL     1      -9.075  -3.499  19.874  0.00  0.00    +0.000 HD
ENDBRANCH  30  32
ENDBRANCH   2  28
TORSDOF 4
ENDMDL
MODEL 4
REMARK VINA RESULT:    -8.632      4.094      7.649
REMARK INTER + INTRA:          -9.811
REMARK INTER:                  -8.698
REMARK INTRA:                  -1.113
REMARK UNBOUND:                 0.586
REMARK  Name = 
REMARK  4 active torsions:
REMARK  status: ('A' for Active; 'I' for Inactive)
REMARK    1  A    between atoms: C_1  and  C_2
REMARK    2  A    between atoms: C_3  and  C_4
REMARK    3  A    between atoms: N_6  and  C_7
REMARK    4  A    between atoms: C_13  and  C_14
REMARK                            x       y       z     vdW  Elec       q    Type
REMARK                         _______ _______ _______ _____ _____    ______ ____
ROOT
ATOM      1  C   UNL     1      -8.487  -4.347  19.621  0.00  0.00    +0.000 C 
ATOM      2  C   UNL     1      -9.070  -3.277  20.230  0.00  0.00    +0.000 C 
ATOM      3  C   UNL     1     -10.304  -2.608  19.591  0.00  0.00    +0.000 C 
ATOM      4  N   UNL     1     -10.662  -3.202  18.300  0.00  0.00    +0.000 N 
ATOM      5  N   UNL     1     -11.732  -2.849  17.562  0.00  0.00    +0.000 NA
ATOM      6  C   UNL     1     -11.658  -3.740  16.566  0.00  0.00    +0.000 A 
ATOM      7  N   UNL     1     -10.643  -4.653  16.664  0.00  0.00    +0.000 NA
ATOM      8  C   UNL     1     -10.046  -4.303  17.774  0.00  0.00    +0.000 A 
ATOM      9  N   UNL     1      -9.007  -4.842  18.427  0.00  0.00    +0.000 N 
ATOM     10  H   UNL     1     -11.142  -2.884  20.243  0.00  0.00    +0.000 HD
ATOM     11  H   UNL     1     -12.369  -3.729  15.750  0.00  0.00    +0.000 HD
ATOM     12  H   UNL     1      -8.558  -5.661  18.024  0.00  0.00    +0.000 HD
ENDROOT
BRANCH   3  13
ATOM     13  C   UNL     1     -10.208  -1.086  19.451  0.00  0.00    +0.000 A 
ATOM     14  C   UNL     1      -9.321  -0.518  18.512  0.00  0.00    +0.000 A 
ATOM     15  C   UNL     1      -9.172   0.864  18.404  0.00  0.00    +0.000 A 
ATOM     16  C   UNL     1      -9.936   1.711  19.197  0.00  0.00    +0.000 A 
ATOM     17  C   UNL     1     -10.849   1.177  20.104  0.00  0.00    +0.000 A 
ATOM     18  C   UNL     1     -10.977  -0.209  20.240  0.00  0.00    +0.000 A 
ATOM     19 BR   UNL     1     -12.202  -0.806  21.571  0.00  0.00    +0.000 Br
ATOM     20  H   UNL     1      -8.706  -1.147  17.869  0.00  0.00    +0.000 HD
ATOM     21  H   UNL     1      -8.454   1.280  17.700  0.00  0.00    +0.000 HD
ATOM     22  H   UNL     1      -9.825   2.790  19.110  0.00  0.00    +0.000 HD
ATOM     23  H   UNL     1     -11.447   1.853  20.710  0.00  0.00    +0.000 HD
ENDBRANCH   3  13
BRANCH   1  24
ATOM     24  C   UNL     1      -7.283  -5.131  20.100  0.00  0.00    +0.000 C 
ATOM     25  H   UNL     1      -6.874  -4.833  21.064  0.00  0.00    +0.000 HD
ATOM     26  H   UNL     1      -6.475  -5.051  19.363  0.00  0.00    +0.000 HD
ATOM     27  H   UNL     1      -7.546  -6.191  20.190  0.00  0.00    +0.000 HD
ENDBRANCH   1  24
BRANCH   2  28
ATOM     28  C   UNL     1      -8.525  -2.670  21.504  0.00  0.00    +0.000 C 
ATOM     29  O   UNL     1      -7.385  -2.219  21.531  0.00  0.00    +0.000 OA
ATOM     30  N   UNL     1      -9.424  -2.603  22.555  0.00  0.00    +0.000 N 
ATOM     31  H   UNL     1     -10.365  -2.939  22.420  0.00  0.00    +0.000 HD
BRANCH  30  32
ATOM     32  C   UNL     1      -9.212  -2.052  23.840  0.00  0.00    +0.000 A 
ATOM     33  C   UNL     1      -9.148  -2.799  25.016  0.00  0.00    +0.000 A 
ATOM     34  C   UNL     1      -8.995  -2.161  26.252  0.00  0.00    +0.000 A 
ATOM     35  C   UNL     1      -8.892  -0.773  26.321  0.00  0.00    +0.000 A 
ATOM     36  C   UNL     1      -8.927  -0.020  25.150  0.00  0.00    +0.000 A 
ATOM     37  C   UNL     1      -9.086  -0.657  23.918  0.00  0.00    +0.000 A 
ATOM     38  H   UNL     1      -9.231  -3.881  25.014  0.00  0.00    +0.000 HD
ATOM     39  H   UNL     1      -8.964  -2.754  27.163  0.00  0.00    +0.000 HD
ATOM     40  H   UNL     1      -8.785  -0.281  27.284  0.00  0.00    +0.000 HD
ATOM     41  H   UNL     1      -8.837   1.061  25.197  0.00  0.00    +0.000 HD
ATOM     42  H   UNL     1      -9.105  -0.043  23.021  0.00  0.00    +0.000 HD
ENDBRANCH  30  32
ENDBRANCH   2  28
TORSDOF 4
ENDMDL
MODEL 5
REMARK VINA RESULT:    -8.593      5.675     10.035
REMARK INTER + INTRA:          -9.765
REMARK INTER:                  -8.663
REMARK INTRA:                  -1.102
REMARK UNBOUND:                 0.586
REMARK  Name = 
REMARK  4 active torsions:
REMARK  status: ('A' for Active; 'I' for Inactive)
REMARK    1  A    between atoms: C_1  and  C_2
REMARK    2  A    between atoms: C_3  and  C_4
REMARK    3  A    between atoms: N_6  and  C_7
REMARK    4  A    between atoms: C_13  and  C_14
REMARK                            x       y       z     vdW  Elec       q    Type
REMARK                         _______ _______ _______ _____ _____    ______ ____
ROOT
ATOM      1  C   UNL     1     -11.551   0.892  19.984  0.00  0.00    +0.000 C 
ATOM      2  C   UNL     1     -10.792   0.627  21.084  0.00  0.00    +0.000 C 
ATOM      3  C   UNL     1      -9.967  -0.674  21.153  0.00  0.00    +0.000 C 
ATOM      4  N   UNL     1     -10.179  -1.539  19.989  0.00  0.00    +0.000 N 
ATOM      5  N   UNL     1      -9.537  -2.702  19.768  0.00  0.00    +0.000 NA
ATOM      6  C   UNL     1     -10.007  -3.025  18.557  0.00  0.00    +0.000 A 
ATOM      7  N   UNL     1     -10.858  -2.114  17.992  0.00  0.00    +0.000 NA
ATOM      8  C   UNL     1     -10.932  -1.182  18.906  0.00  0.00    +0.000 A 
ATOM      9  N   UNL     1     -11.579  -0.007  18.920  0.00  0.00    +0.000 N 
ATOM     10  H   UNL     1      -8.924  -0.352  21.047  0.00  0.00    +0.000 HD
ATOM     11  H   UNL     1      -9.712  -3.945  18.069  0.00  0.00    +0.000 HD
ATOM     12  H   UNL     1     -12.135   0.245  18.107  0.00  0.00    +0.000 HD
ENDROOT
BRANCH   3  13
ATOM     13  C   UNL     1     -10.153  -1.484  22.440  0.00  0.00    +0.000 A 
ATOM     14  C   UNL     1     -11.443  -1.906  22.828  0.00  0.00    +0.000 A 
ATOM     15  C   UNL     1     -11.647  -2.595  24.023  0.00  0.00    +0.000 A 
ATOM     16  C   UNL     1     -10.567  -2.917  24.834  0.00  0.00    +0.000 A 
ATOM     17  C   UNL     1      -9.279  -2.548  24.455  0.00  0.00    +0.000 A 
ATOM     18  C   UNL     1      -9.072  -1.828  23.275  0.00  0.00    +0.000 A 
ATOM     19 BR   UNL     1      -7.273  -1.317  22.914  0.00  0.00    +0.000 Br
ATOM     20  H   UNL     1     -12.316  -1.676  22.218  0.00  0.00    +0.000 HD
ATOM     21  H   UNL     1     -12.655  -2.876  24.322  0.00  0.00    +0.000 HD
ATOM     22  H   UNL     1     -10.725  -3.459  25.765  0.00  0.00    +0.000 HD
ATOM     23  H   UNL     1      -8.443  -2.817  25.096  0.00  0.00    +0.000 HD
ENDBRANCH   3  13
BRANCH   1  24
ATOM     24  C   UNL     1     -12.414   2.111  19.737  0.00  0.00    +0.000 C 
ATOM     25  H   UNL     1     -12.025   3.054  20.119  0.00  0.00    +0.000 HD
ATOM     26  H   UNL     1     -13.403   1.958  20.186  0.00  0.00    +0.000 HD
ATOM     27  H   UNL     1     -12.557   2.249  18.659  0.00  0.00    +0.000 HD
ENDBRANCH   1  24
BRANCH   2  28
ATOM     28  C   UNL     1     -10.756   1.544  22.287  0.00  0.00    +0.000 C 
ATOM     29  O   UNL     1     -11.773   1.736  22.943  0.00  0.00    +0.000 OA
ATOM     30  N   UNL     1      -9.507   2.051  22.603  0.00  0.00    +0.000 N 
ATOM     31  H   UNL     1      -8.712   1.785  22.043  0.00  0.00    +0.000 HD
BRANCH  30  32
ATOM     32  C   UNL     1      -9.164   2.891  23.687  0.00  0.00    +0.000 A 
ATOM     33  C   UNL     1      -9.798   4.097  23.981  0.00  0.00    +0.000 A 
ATOM     34  C   UNL     1      -9.350   4.893  25.042  0.00  0.00    +0.000 A 
ATOM     35  C   UNL     1      -8.273   4.482  25.824  0.00  0.00    +0.000 A 
ATOM     36  C   UNL     1      -7.649   3.266  25.556  0.00  0.00    +0.000 A 
ATOM     37  C   UNL     1      -8.093   2.476  24.495  0.00  0.00    +0.000 A 
ATOM     38  H   UNL     1     -10.636   4.463  23.396  0.00  0.00    +0.000 HD
ATOM     39  H   UNL     1      -9.842   5.840  25.249  0.00  0.00    +0.000 HD
ATOM     40  H   UNL     1      -7.921   5.109  26.639  0.00  0.00    +0.000 HD
ATOM     41  H   UNL     1      -6.816   2.937  26.170  0.00  0.00    +0.000 HD
ATOM     42  H   UNL     1      -7.590   1.530  24.313  0.00  0.00    +0.000 HD
ENDBRANCH  30  32
ENDBRANCH   2  28
TORSDOF 4
ENDMDL
MODEL 6
REMARK VINA RESULT:    -8.484      3.638      5.852
REMARK INTER + INTRA:          -9.633
REMARK INTER:                  -8.559
REMARK INTRA:                  -1.075
REMARK UNBOUND:                 0.586
REMARK  Name = 
REMARK  4 active torsions:
REMARK  status: ('A' for Active; 'I' for Inactive)
REMARK    1  A    between atoms: C_1  and  C_2
REMARK    2  A    between atoms: C_3  and  C_4
REMARK    3  A    between atoms: N_6  and  C_7
REMARK    4  A    between atoms: C_13  and  C_14
REMARK                            x       y       z     vdW  Elec       q    Type
REMARK                         _______ _______ _______ _____ _____    ______ ____
ROOT
ATOM      1  C   UNL     1     -11.078   0.016  19.548  0.00  0.00    +0.000 C 
ATOM      2  C   UNL     1     -10.954  -1.069  20.362  0.00  0.00    +0.000 C 
ATOM      3  C   UNL     1     -10.625  -0.875  21.856  0.00  0.00    +0.000 C 
ATOM      4  N   UNL     1     -10.403   0.530  22.208  0.00  0.00    +0.000 N 
ATOM      5  N   UNL     1     -10.163   0.983  23.453  0.00  0.00    +0.000 NA
ATOM      6  C   UNL     1     -10.141   2.304  23.243  0.00  0.00    +0.000 A 
ATOM      7  N   UNL     1     -10.404   2.703  21.959  0.00  0.00    +0.000 NA
ATOM      8  C   UNL     1     -10.584   1.567  21.335  0.00  0.00    +0.000 A 
ATOM      9  N   UNL     1     -10.914   1.300  20.064  0.00  0.00    +0.000 N 
ATOM     10  H   UNL     1     -11.553  -1.129  22.384  0.00  0.00    +0.000 HD
ATOM     11  H   UNL     1      -9.939   2.997  24.049  0.00  0.00    +0.000 HD
ATOM     12  H   UNL     1     -11.046   2.082  19.427  0.00  0.00    +0.000 HD
ENDROOT
BRANCH   3  13
ATOM     13  C   UNL     1      -9.461  -1.726  22.373  0.00  0.00    +0.000 A 
ATOM     14  C   UNL     1      -8.213  -1.687  21.716  0.00  0.00    +0.000 A 
ATOM     15  C   UNL     1      -7.154  -2.495  22.131  0.00  0.00    +0.000 A 
ATOM     16  C   UNL     1      -7.303  -3.325  23.235  0.00  0.00    +0.000 A 
ATOM     17  C   UNL     1      -8.512  -3.354  23.925  0.00  0.00    +0.000 A 
ATOM     18  C   UNL     1      -9.588  -2.571  23.493  0.00  0.00    +0.000 A 
ATOM     19 BR   UNL     1     -11.207  -2.764  24.477  0.00  0.00    +0.000 Br
ATOM     20  H   UNL     1      -8.055  -1.047  20.850  0.00  0.00    +0.000 HD
ATOM     21  H   UNL     1      -6.213  -2.478  21.586  0.00  0.00    +0.000 HD
ATOM     22  H   UNL     1      -6.476  -3.952  23.562  0.00  0.00    +0.000 HD
ATOM     23  H   UNL     1      -8.609  -4.001  24.792  0.00  0.00    +0.000 HD
ENDBRANCH   3  13
BRANCH   1  24
ATOM     24  C   UNL     1     -11.402   0.021  18.069  0.00  0.00    +0.000 C 
ATOM     25  H   UNL     1     -11.965  -0.836  17.703  0.00  0.00    +0.000 HD
ATOM     26  H   UNL     1     -10.473   0.075  17.489  0.00  0.00    +0.000 HD
ATOM     27  H   UNL     1     -11.997   0.909  17.826  0.00  0.00    +0.000 HD
ENDBRANCH   1  24
BRANCH   2  28
ATOM     28  C   UNL     1     -11.080  -2.488  19.851  0.00  0.00    +0.000 C 
ATOM     29  O   UNL     1     -12.128  -3.105  20.006  0.00  0.00    +0.000 OA
ATOM     30  N   UNL     1      -9.982  -2.962  19.156  0.00  0.00    +0.000 N 
ATOM     31  H   UNL     1      -9.186  -2.358  19.020  0.00  0.00    +0.000 HD
BRANCH  30  32
ATOM     32  C   UNL     1      -9.831  -4.222  18.532  0.00  0.00    +0.000 A 
ATOM     33  C   UNL     1     -10.600  -4.665  17.455  0.00  0.00    +0.000 A 
ATOM     34  C   UNL     1     -10.419  -5.954  16.940  0.00  0.00    +0.000 A 
ATOM     35  C   UNL     1      -9.463  -6.804  17.488  0.00  0.00    +0.000 A 
ATOM     36  C   UNL     1      -8.671  -6.363  18.545  0.00  0.00    +0.000 A 
ATOM     37  C   UNL     1      -8.855  -5.079  19.063  0.00  0.00    +0.000 A 
ATOM     38  H   UNL     1     -11.363  -4.041  17.000  0.00  0.00    +0.000 HD
ATOM     39  H   UNL     1     -11.038  -6.292  16.112  0.00  0.00    +0.000 HD
ATOM     40  H   UNL     1      -9.334  -7.808  17.092  0.00  0.00    +0.000 HD
ATOM     41  H   UNL     1      -7.916  -7.018  18.969  0.00  0.00    +0.000 HD
ATOM     42  H   UNL     1      -8.219  -4.761  19.885  0.00  0.00    +0.000 HD
ENDBRANCH  30  32
ENDBRANCH   2  28
TORSDOF 4
ENDMDL
MODEL 7
REMARK VINA RESULT:    -8.281      2.932      7.253
REMARK INTER + INTRA:          -9.390
REMARK INTER:                  -8.900
REMARK INTRA:                  -0.490
REMARK UNBOUND:                 0.586
REMARK  Name = 
REMARK  4 active torsions:
REMARK  status: ('A' for Active; 'I' for Inactive)
REMARK    1  A    between atoms: C_1  and  C_2
REMARK    2  A    between atoms: C_3  and  C_4
REMARK    3  A    between atoms: N_6  and  C_7
REMARK    4  A    between atoms: C_13  and  C_14
REMARK                            x       y       z     vdW  Elec       q    Type
REMARK                         _______ _______ _______ _____ _____    ______ ____
ROOT
ATOM      1  C   UNL     1      -7.797  -5.841  18.941  0.00  0.00    +0.000 C 
ATOM      2  C   UNL     1      -8.882  -5.019  18.995  0.00  0.00    +0.000 C 
ATOM      3  C   UNL     1     -10.216  -5.466  18.363  0.00  0.00    +0.000 C 
ATOM      4  N   UNL     1     -10.113  -6.760  17.682  0.00  0.00    +0.000 N 
ATOM      5  N   UNL     1     -11.140  -7.408  17.102  0.00  0.00    +0.000 NA
ATOM      6  C   UNL     1     -10.546  -8.549  16.735  0.00  0.00    +0.000 A 
ATOM      7  N   UNL     1      -9.231  -8.673  17.095  0.00  0.00    +0.000 NA
ATOM      8  C   UNL     1      -8.991  -7.541  17.706  0.00  0.00    +0.000 A 
ATOM      9  N   UNL     1      -7.891  -7.085  18.321  0.00  0.00    +0.000 N 
ATOM     10  H   UNL     1     -10.875  -5.674  19.215  0.00  0.00    +0.000 HD
ATOM     11  H   UNL     1     -11.089  -9.317  16.200  0.00  0.00    +0.000 HD
ATOM     12  H   UNL     1      -7.065  -7.678  18.331  0.00  0.00    +0.000 HD
ENDROOT
BRANCH   3  13
ATOM     13  C   UNL     1     -10.856  -4.439  17.424  0.00  0.00    +0.000 A 
ATOM     14  C   UNL     1     -10.501  -4.413  16.059  0.00  0.00    +0.000 A 
ATOM     15  C   UNL     1     -11.026  -3.451  15.195  0.00  0.00    +0.000 A 
ATOM     16  C   UNL     1     -11.949  -2.525  15.663  0.00  0.00    +0.000 A 
ATOM     17  C   UNL     1     -12.347  -2.554  16.997  0.00  0.00    +0.000 A 
ATOM     18  C   UNL     1     -11.799  -3.494  17.875  0.00  0.00    +0.000 A 
ATOM     19 BR   UNL     1     -12.369  -3.373  19.688  0.00  0.00    +0.000 Br
ATOM     20  H   UNL     1      -9.783  -5.123  15.652  0.00  0.00    +0.000 HD
ATOM     21  H   UNL     1     -10.708  -3.425  14.155  0.00  0.00    +0.000 HD
ATOM     22  H   UNL     1     -12.363  -1.778  14.988  0.00  0.00    +0.000 HD
ATOM     23  H   UNL     1     -13.079  -1.829  17.345  0.00  0.00    +0.000 HD
ENDBRANCH   3  13
BRANCH   1  24
ATOM     24  C   UNL     1      -6.418  -5.577  19.508  0.00  0.00    +0.000 C 
ATOM     25  H   UNL     1      -6.313  -5.707  20.584  0.00  0.00    +0.000 HD
ATOM     26  H   UNL     1      -6.112  -4.551  19.270  0.00  0.00    +0.000 HD
ATOM     27  H   UNL     1      -5.693  -6.255  19.043  0.00  0.00    +0.000 HD
ENDBRANCH   1  24
BRANCH   2  28
ATOM     28  C   UNL     1      -8.829  -3.641  19.617  0.00  0.00    +0.000 C 
ATOM     29  O   UNL     1      -8.881  -2.644  18.906  0.00  0.00    +0.000 OA
ATOM     30  N   UNL     1      -8.800  -3.620  21.001  0.00  0.00    +0.000 N 
ATOM     31  H   UNL     1      -8.827  -4.492  21.507  0.00  0.00    +0.000 HD
BRANCH  30  32
ATOM     32  C   UNL     1      -8.792  -2.489  21.849  0.00  0.00    +0.000 A 
ATOM     33  C   UNL     1      -7.641  -1.929  22.404  0.00  0.00    +0.000 A 
ATOM     34  C   UNL     1      -7.736  -0.843  23.282  0.00  0.00    +0.000 A 
ATOM     35  C   UNL     1      -8.979  -0.302  23.602  0.00  0.00    +0.000 A 
ATOM     36  C   UNL     1     -10.132  -0.836  23.032  0.00  0.00    +0.000 A 
ATOM     37  C   UNL     1     -10.038  -1.922  22.160  0.00  0.00    +0.000 A 
ATOM     38  H   UNL     1      -6.652  -2.320  22.191  0.00  0.00    +0.000 HD
ATOM     39  H   UNL     1      -6.833  -0.427  23.722  0.00  0.00    +0.000 HD
ATOM     40  H   UNL     1      -9.049   0.534  24.293  0.00  0.00    +0.000 HD
ATOM     41  H   UNL     1     -11.102  -0.410  23.270  0.00  0.00    +0.000 HD
ATOM     42  H   UNL     1     -10.954  -2.315  21.728  0.00  0.00    +0.000 HD
ENDBRANCH  30  32
ENDBRANCH   2  28
TORSDOF 4
ENDMDL
MODEL 8
REMARK VINA RESULT:    -8.126      5.458      9.521
REMARK INTER + INTRA:          -9.203
REMARK INTER:                  -8.067
REMARK INTRA:                  -1.136
REMARK UNBOUND:                 0.586
REMARK  Name = 
REMARK  4 active torsions:
REMARK  status: ('A' for Active; 'I' for Inactive)
REMARK    1  A    between atoms: C_1  and  C_2
REMARK    2  A    between atoms: C_3  and  C_4
REMARK    3  A    between atoms: N_6  and  C_7
REMARK    4  A    between atoms: C_13  and  C_14
REMARK                            x       y       z     vdW  Elec       q    Type
REMARK                         _______ _______ _______ _____ _____    ______ ____
ROOT
ATOM      1  C   UNL     1     -10.201  -2.309  20.505  0.00  0.00    +0.000 C 
ATOM      2  C   UNL     1     -10.007  -1.459  21.552  0.00  0.00    +0.000 C 
ATOM      3  C   UNL     1      -8.678  -1.494  22.334  0.00  0.00    +0.000 C 
ATOM      4  N   UNL     1      -7.777  -2.551  21.867  0.00  0.00    +0.000 N 
ATOM      5  N   UNL     1      -6.531  -2.762  22.333  0.00  0.00    +0.000 NA
ATOM      6  C   UNL     1      -6.120  -3.745  21.524  0.00  0.00    +0.000 A 
ATOM      7  N   UNL     1      -7.009  -4.122  20.554  0.00  0.00    +0.000 NA
ATOM      8  C   UNL     1      -8.033  -3.342  20.781  0.00  0.00    +0.000 A 
ATOM      9  N   UNL     1      -9.201  -3.206  20.137  0.00  0.00    +0.000 N 
ATOM     10  H   UNL     1      -8.160  -0.570  22.050  0.00  0.00    +0.000 HD
ATOM     11  H   UNL     1      -5.141  -4.192  21.638  0.00  0.00    +0.000 HD
ATOM     12  H   UNL     1      -9.378  -3.800  19.331  0.00  0.00    +0.000 HD
ENDROOT
BRANCH   3  13
ATOM     13  C   UNL     1      -8.831  -1.581  23.855  0.00  0.00    +0.000 A 
ATOM     14  C   UNL     1      -9.163  -2.811  24.462  0.00  0.00    +0.000 A 
ATOM     15  C   UNL     1      -9.364  -2.906  25.838  0.00  0.00    +0.000 A 
ATOM     16  C   UNL     1      -9.196  -1.787  26.645  0.00  0.00    +0.000 A 
ATOM     17  C   UNL     1      -8.830  -0.570  26.077  0.00  0.00    +0.000 A 
ATOM     18  C   UNL     1      -8.659  -0.462  24.693  0.00  0.00    +0.000 A 
ATOM     19 BR   UNL     1      -8.236   1.276  24.038  0.00  0.00    +0.000 Br
ATOM     20  H   UNL     1      -9.301  -3.712  23.865  0.00  0.00    +0.000 HD
ATOM     21  H   UNL     1      -9.658  -3.855  26.281  0.00  0.00    +0.000 HD
ATOM     22  H   UNL     1      -9.348  -1.861  27.720  0.00  0.00    +0.000 HD
ATOM     23  H   UNL     1      -8.692   0.293  26.723  0.00  0.00    +0.000 HD
ENDBRANCH   3  13
BRANCH   1  24
ATOM     24  C   UNL     1     -11.428  -2.412  19.624  0.00  0.00    +0.000 C 
ATOM     25  H   UNL     1     -11.465  -1.727  18.779  0.00  0.00    +0.000 HD
ATOM     26  H   UNL     1     -12.329  -2.241  20.225  0.00  0.00    +0.000 HD
ATOM     27  H   UNL     1     -11.496  -3.423  19.205  0.00  0.00    +0.000 HD
ENDBRANCH   1  24
BRANCH   2  28
ATOM     28  C   UNL     1     -11.071  -0.493  22.024  0.00  0.00    +0.000 C 
ATOM     29  O   UNL     1     -11.986  -0.889  22.739  0.00  0.00    +0.000 OA
ATOM     30  N   UNL     1     -10.874   0.826  21.656  0.00  0.00    +0.000 N 
ATOM     31  H   UNL     1     -10.055   1.071  21.121  0.00  0.00    +0.000 HD
BRANCH  30  32
ATOM     32  C   UNL     1     -11.673   1.945  21.987  0.00  0.00    +0.000 A 
ATOM     33  C   UNL     1     -12.561   2.567  21.109  0.00  0.00    +0.000 A 
ATOM     34  C   UNL     1     -13.266   3.708  21.507  0.00  0.00    +0.000 A 
ATOM     35  C   UNL     1     -13.101   4.229  22.788  0.00  0.00    +0.000 A 
ATOM     36  C   UNL     1     -12.238   3.599  23.682  0.00  0.00    +0.000 A 
ATOM     37  C   UNL     1     -11.530   2.464  23.283  0.00  0.00    +0.000 A 
ATOM     38  H   UNL     1     -12.717   2.204  20.098  0.00  0.00    +0.000 HD
ATOM     39  H   UNL     1     -13.942   4.194  20.806  0.00  0.00    +0.000 HD
ATOM     40  H   UNL     1     -13.643   5.121  23.089  0.00  0.00    +0.000 HD
ATOM     41  H   UNL     1     -12.114   3.994  24.686  0.00  0.00    +0.000 HD
ATOM     42  H   UNL     1     -10.868   1.992  24.004  0.00  0.00    +0.000 HD
ENDBRANCH  30  32
ENDBRANCH   2  28
TORSDOF 4
ENDMDL
MODEL 9
REMARK VINA RESULT:    -7.974      3.822      6.962
REMARK INTER + INTRA:          -9.019
REMARK INTER:                  -7.835
REMARK INTRA:                  -1.185
REMARK UNBOUND:                 0.586
REMARK  Name = 
REMARK  4 active torsions:
REMARK  status: ('A' for Active; 'I' for Inactive)
REMARK    1  A    between atoms: C_1  and  C_2
REMARK    2  A    between atoms: C_3  and  C_4
REMARK    3  A    between atoms: N_6  and  C_7
REMARK    4  A    between atoms: C_13  and  C_14
REMARK                            x       y       z     vdW  Elec       q    Type
REMARK                         _______ _______ _______ _____ _____    ______ ____
ROOT
ATOM      1  C   UNL     1      -9.013  -4.592  19.474  0.00  0.00    +0.000 C 
ATOM      2  C   UNL     1      -9.545  -3.374  19.172  0.00  0.00    +0.000 C 
ATOM      3  C   UNL     1      -9.156  -2.138  20.008  0.00  0.00    +0.000 C 
ATOM      4  N   UNL     1      -8.272  -2.469  21.128  0.00  0.00    +0.000 N 
ATOM      5  N   UNL     1      -7.734  -1.572  21.976  0.00  0.00    +0.000 NA
ATOM      6  C   UNL     1      -6.951  -2.361  22.719  0.00  0.00    +0.000 A 
ATOM      7  N   UNL     1      -6.928  -3.681  22.356  0.00  0.00    +0.000 NA
ATOM      8  C   UNL     1      -7.752  -3.716  21.341  0.00  0.00    +0.000 A 
ATOM      9  N   UNL     1      -8.116  -4.721  20.532  0.00  0.00    +0.000 N 
ATOM     10  H   UNL     1      -8.519  -1.539  19.345  0.00  0.00    +0.000 HD
ATOM     11  H   UNL     1      -6.372  -1.963  23.542  0.00  0.00    +0.000 HD
ATOM     12  H   UNL     1      -7.721  -5.642  20.702  0.00  0.00    +0.000 HD
ENDROOT
BRANCH   3  13
ATOM     13  C   UNL     1     -10.340  -1.307  20.512  0.00  0.00    +0.000 A 
ATOM     14  C   UNL     1     -11.092  -1.751  21.620  0.00  0.00    +0.000 A 
ATOM     15  C   UNL     1     -12.209  -1.043  22.064  0.00  0.00    +0.000 A 
ATOM     16  C   UNL     1     -12.573   0.145  21.443  0.00  0.00    +0.000 A 
ATOM     17  C   UNL     1     -11.824   0.626  20.372  0.00  0.00    +0.000 A 
ATOM     18  C   UNL     1     -10.723  -0.097  19.901  0.00  0.00    +0.000 A 
ATOM     19 BR   UNL     1      -9.834   0.632  18.382  0.00  0.00    +0.000 Br
ATOM     20  H   UNL     1     -10.838  -2.675  22.137  0.00  0.00    +0.000 HD
ATOM     21  H   UNL     1     -12.798  -1.424  22.895  0.00  0.00    +0.000 HD
ATOM     22  H   UNL     1     -13.441   0.700  21.791  0.00  0.00    +0.000 HD
ATOM     23  H   UNL     1     -12.115   1.563  19.903  0.00  0.00    +0.000 HD
ENDBRANCH   3  13
BRANCH   1  24
ATOM     24  C   UNL     1      -9.271  -5.906  18.766  0.00  0.00    +0.000 C 
ATOM     25  H   UNL     1     -10.023  -6.550  19.219  0.00  0.00    +0.000 HD
ATOM     26  H   UNL     1      -8.339  -6.480  18.707  0.00  0.00    +0.000 HD
ATOM     27  H   UNL     1      -9.606  -5.711  17.741  0.00  0.00    +0.000 HD
ENDBRANCH   1  24
BRANCH   2  28
ATOM     28  C   UNL     1     -10.555  -3.180  18.063  0.00  0.00    +0.000 C 
ATOM     29  O   UNL     1     -11.755  -3.243  18.307  0.00  0.00    +0.000 OA
ATOM     30  N   UNL     1     -10.019  -2.860  16.828  0.00  0.00    +0.000 N 
ATOM     31  H   UNL     1      -9.020  -2.764  16.735  0.00  0.00    +0.000 HD
BRANCH  30  32
ATOM     32  C   UNL     1     -10.715  -2.582  15.629  0.00  0.00    +0.000 A 
ATOM     33  C   UNL     1     -11.270  -1.342  15.309  0.00  0.00    +0.000 A 
ATOM     34  C   UNL     1     -11.994  -1.176  14.123  0.00  0.00    +0.000 A 
ATOM     35  C   UNL     1     -12.159  -2.243  13.243  0.00  0.00    +0.000 A 
ATOM     36  C   UNL     1     -11.587  -3.477  13.539  0.00  0.00    +0.000 A 
ATOM     37  C   UNL     1     -10.868  -3.644  14.725  0.00  0.00    +0.000 A 
ATOM     38  H   UNL     1     -11.175  -0.484  15.966  0.00  0.00    +0.000 HD
ATOM     39  H   UNL     1     -12.437  -0.209  13.894  0.00  0.00    +0.000 HD
ATOM     40  H   UNL     1     -12.732  -2.112  12.328  0.00  0.00    +0.000 HD
ATOM     41  H   UNL     1     -11.703  -4.309  12.850  0.00  0.00    +0.000 HD
ATOM     42  H   UNL     1     -10.429  -4.617  14.926  0.00  0.00    +0.000 HD
ENDBRANCH  30  32
ENDBRANCH   2  28
TORSDOF 4
ENDMDL
