REMARK  Name = 
REMARK  2 active torsions:
REMARK  status: ('A' for Active; 'I' for Inactive)
REMARK    1  A    between atoms: N_1  and  C_2
REMARK    2  A    between atoms: C_15  and  N_16
REMARK                            x       y       z     vdW  Elec       q    Type
REMARK                         _______ _______ _______ _____ _____    ______ ____
ROOT
ATOM      1  C   UNL     1       0.107  -0.587   0.016  0.00  0.00    +0.000 A 
ATOM      2  C   UNL     1       0.967   0.535   0.009  0.00  0.00    +0.000 A 
ATOM      3  N   UNL     1       0.398   1.799   0.257  0.00  0.00    +0.000 N 
ATOM      4  C   UNL     1       1.032   2.953   0.719  0.00  0.00    +0.000 A 
ATOM      5  C   UNL     1       2.352   3.282   0.437  0.00  0.00    +0.000 A 
ATOM      6  C   UNL     1       2.936   4.367   1.079  0.00  0.00    +0.000 A 
ATOM      7  C   UNL     1       2.171   5.136   1.942  0.00  0.00    +0.000 A 
ATOM      8 BR   UNL     1       2.926   6.579   2.881  0.00  0.00    +0.000 Br
ATOM      9  C   UNL     1       0.836   4.799   2.103  0.00  0.00    +0.000 A 
ATOM     10  N   UNL     1       0.260   3.722   1.515  0.00  0.00    +0.000 NA
ATOM     11  N   UNL     1       2.278   0.426  -0.288  0.00  0.00    +0.000 NA
ATOM     12  C   UNL     1       2.751  -0.795  -0.540  0.00  0.00    +0.000 A 
ATOM     13  N   UNL     1       2.002  -1.892  -0.556  0.00  0.00    +0.000 N 
ATOM     14  C   UNL     1       0.691  -1.833  -0.308  0.00  0.00    +0.000 A 
ATOM     15  H   UNL     1      -0.468   1.753   0.789  0.00  0.00    +0.000 HD
ATOM     16  H   UNL     1       2.954   2.694  -0.243  0.00  0.00    +0.000 HD
ATOM     17  H   UNL     1       3.990   4.588   0.923  0.00  0.00    +0.000 HD
ATOM     18  H   UNL     1       0.176   5.385   2.732  0.00  0.00    +0.000 HD
ATOM     19  H   UNL     1       3.809  -0.897  -0.755  0.00  0.00    +0.000 HD
ATOM     20  H   UNL     1       2.412  -2.796  -0.771  0.00  0.00    +0.000 HD
ENDROOT
BRANCH  14  21
ATOM     21  N   UNL     1       0.019  -3.052  -0.421  0.00  0.00    +0.000 N 
ATOM     22  C   UNL     1      -1.314  -3.190  -0.856  0.00  0.00    +0.000 A 
ATOM     23  C   UNL     1      -1.864  -2.407  -1.868  0.00  0.00    +0.000 A 
ATOM     24  C   UNL     1      -3.241  -2.437  -2.058  0.00  0.00    +0.000 A 
ATOM     25  C   UNL     1      -4.011  -3.316  -1.308  0.00  0.00    +0.000 A 
ATOM     26  C   UNL     1      -3.367  -4.128  -0.393  0.00  0.00    +0.000 A 
ATOM     27  N   UNL     1      -2.041  -4.059  -0.137  0.00  0.00    +0.000 NA
ATOM     28  H   UNL     1      -0.029  -3.557   0.470  0.00  0.00    +0.000 HD
ATOM     29  H   UNL     1      -1.263  -1.711  -2.445  0.00  0.00    +0.000 HD
ATOM     30  H   UNL     1      -3.714  -1.771  -2.776  0.00  0.00    +0.000 HD
ATOM     31  H   UNL     1      -5.087  -3.370  -1.434  0.00  0.00    +0.000 HD
ATOM     32  H   UNL     1      -3.916  -4.865   0.188  0.00  0.00    +0.000 HD
ENDBRANCH  14  21
BRANCH   1  33
ATOM     33  N   UNL     1      -1.218  -0.448   0.489  0.00  0.00    +0.000 N 
ATOM     34  H   UNL     1      -1.717   0.364   0.125  0.00  0.00    +0.000 HD
ATOM     35  H   UNL     1      -1.819  -1.270   0.483  0.00  0.00    +0.000 HD
ENDBRANCH   1  33
TORSDOF 2
