
 OpenBabel01112423073D

 44 46  0  0  0  0  0  0  0  0999 V2000
    7.0241    0.2985   -4.1852 C   0  0  0  0  0  0  0  0  0  0  0  0
    5.7885    0.7433   -3.4617 C   0  0  0  0  0  0  0  0  0  0  0  0
    5.8050    1.0847   -2.1193 C   0  0  0  0  0  0  0  0  0  0  0  0
    4.6226    1.5243   -1.5227 C   0  0  0  0  0  0  0  0  0  0  0  0
    3.4253    1.6003   -2.2672 C   0  0  0  0  0  0  0  0  0  0  0  0
    2.1693    2.0763   -1.7783 C   0  0  0  0  0  0  0  0  0  0  0  0
    2.0298    2.5944   -0.4496 N   0  0  0  0  0  0  0  0  0  0  0  0
    1.0978    3.6217   -0.1467 C   0  0  0  0  0  0  0  0  0  0  0  0
    0.9131    4.5976   -1.0435 N   0  3  0  0  0  0  0  0  0  0  0  0
   -0.0122    5.5281   -0.8453 C   0  0  0  0  0  0  0  0  0  0  0  0
   -0.7654    5.6219    0.2583 N   0  0  0  0  0  0  0  0  0  0  0  0
   -0.5892    4.6822    1.2071 C   0  0  0  0  0  0  0  0  0  0  0  0
   -1.3037    4.7927    2.4061 N   0  0  0  0  0  0  0  0  0  0  0  0
   -2.0449    6.0393    2.6778 C   0  0  0  0  0  0  0  0  0  0  0  0
   -3.4038    6.0833    1.9782 C   0  0  0  0  0  0  0  0  0  0  0  0
   -2.2553    6.1423    4.1907 C   0  0  0  0  0  0  0  0  0  0  0  0
    0.3547    3.6377    1.0524 C   0  0  0  0  0  0  0  0  0  0  0  0
    0.4488    2.5485    1.9572 N   0  0  0  0  0  0  0  0  0  0  0  0
    1.0226    1.9679   -2.5846 C   0  0  0  0  0  0  0  0  0  0  0  0
    1.1235    1.5416   -3.8965 C   0  0  0  0  0  0  0  0  0  0  0  0
    2.3650    1.1688   -4.3938 C   0  0  0  0  0  0  0  0  0  0  0  0
    3.5104    1.1769   -3.6103 C   0  0  0  0  0  0  0  0  0  0  0  0
    4.6506    0.7777   -4.1903 N   0  0  0  0  0  0  0  0  0  0  0  0
    7.9265    0.4853   -3.5960 H   0  0  0  0  0  0  0  0  0  0  0  0
    7.1242    0.8505   -5.1280 H   0  0  0  0  0  0  0  0  0  0  0  0
    6.9637   -0.7719   -4.4033 H   0  0  0  0  0  0  0  0  0  0  0  0
    6.7276    1.0144   -1.5416 H   0  0  0  0  0  0  0  0  0  0  0  0
    4.6436    1.7962   -0.4702 H   0  0  0  0  0  0  0  0  0  0  0  0
    1.8395    1.7988    0.1712 H   0  0  0  0  0  0  0  0  0  0  0  0
    1.4711    4.5885   -1.8905 H   0  0  0  0  0  0  0  0  0  0  0  0
   -0.1842    6.2434   -1.6435 H   0  0  0  0  0  0  0  0  0  0  0  0
   -1.8323    3.9554    2.6291 H   0  0  0  0  0  0  0  0  0  0  0  0
   -1.4490    6.9093    2.3712 H   0  0  0  0  0  0  0  0  0  0  0  0
   -4.0798    5.3134    2.3654 H   0  0  0  0  0  0  0  0  0  0  0  0
   -3.3206    5.9392    0.8976 H   0  0  0  0  0  0  0  0  0  0  0  0
   -3.8823    7.0568    2.1437 H   0  0  0  0  0  0  0  0  0  0  0  0
   -2.8905    5.3284    4.5584 H   0  0  0  0  0  0  0  0  0  0  0  0
   -2.7341    7.0912    4.4565 H   0  0  0  0  0  0  0  0  0  0  0  0
   -1.3002    6.0828    4.7230 H   0  0  0  0  0  0  0  0  0  0  0  0
   -0.0999    2.6894    2.8056 H   0  0  0  0  0  0  0  0  0  0  0  0
    1.4053    2.3007    2.2105 H   0  0  0  0  0  0  0  0  0  0  0  0
    0.0304    2.2102   -2.2077 H   0  0  0  0  0  0  0  0  0  0  0  0
    0.2443    1.4754   -4.5328 H   0  0  0  0  0  0  0  0  0  0  0  0
    2.4489    0.8325   -5.4207 H   0  0  0  0  0  0  0  0  0  0  0  0
  1  2  1  0  0  0  0
  1 24  1  0  0  0  0
  1 25  1  0  0  0  0
  1 26  1  0  0  0  0
  2  3  1  0  0  0  0
  2 23  2  0  0  0  0
  3  4  2  0  0  0  0
  3 27  1  0  0  0  0
  4  5  1  0  0  0  0
  4 28  1  0  0  0  0
  5  6  1  0  0  0  0
  5 22  2  0  0  0  0
  6  7  1  0  0  0  0
  6 19  2  0  0  0  0
  7  8  1  0  0  0  0
  7 29  1  0  0  0  0
  8  9  1  0  0  0  0
  8 17  2  0  0  0  0
  9 10  2  0  0  0  0
  9 30  1  0  0  0  0
 10 11  1  0  0  0  0
 10 31  1  0  0  0  0
 11 12  2  0  0  0  0
 12 13  1  0  0  0  0
 12 17  1  0  0  0  0
 13 14  1  0  0  0  0
 13 32  1  0  0  0  0
 14 15  1  0  0  0  0
 14 16  1  0  0  0  0
 14 33  1  0  0  0  0
 15 34  1  0  0  0  0
 15 35  1  0  0  0  0
 15 36  1  0  0  0  0
 16 37  1  0  0  0  0
 16 38  1  0  0  0  0
 16 39  1  0  0  0  0
 17 18  1  0  0  0  0
 18 40  1  0  0  0  0
 18 41  1  0  0  0  0
 19 20  1  0  0  0  0
 19 42  1  0  0  0  0
 20 21  2  0  0  0  0
 20 43  1  0  0  0  0
 21 22  1  0  0  0  0
 21 44  1  0  0  0  0
 22 23  1  0  0  0  0
M  CHG  1   9   1
M  END
$$$$
