MODEL 1
REMARK VINA RESULT:   -10.822      0.000      0.000
REMARK INTER + INTRA:         -15.086
REMARK INTER:                 -14.618
REMARK INTRA:                  -0.468
REMARK UNBOUND:                -0.468
REMARK  Name = 
REMARK  7 active torsions:
REMARK  status: ('A' for Active; 'I' for Inactive)
REMARK    1  A    between atoms: C_1  and  C_2
REMARK    2  A    between atoms: C_2  and  C_3
REMARK    3  A    between atoms: C_3  and  C_4
REMARK    4  A    between atoms: C_3  and  C_5
REMARK    5  A    between atoms: C_8  and  N_9
REMARK    6  A    between atoms: C_10  and  C_12
REMARK    7  A    between atoms: C_12  and  N_13
REMARK                            x       y       z     vdW  Elec       q    Type
REMARK                         _______ _______ _______ _____ _____    ______ ____
ROOT
ATOM      1  N   UNL     1      -8.773  -6.775  20.058  0.00  0.00    +0.000 N 
ATOM      2  C   UNL     1      -7.840  -5.769  19.933  0.00  0.00    +0.000 C 
ATOM      3  O   UNL     1      -7.197  -5.508  18.915  0.00  0.00    +0.000 OA
ATOM      4  H   UNL     1      -9.060  -7.023  20.999  0.00  0.00    +0.000 HD
ENDROOT
BRANCH   1   8
ATOM      5  C   UNL     1      -9.393  -9.639  17.045  0.00  0.00    +0.000 A 
ATOM      6  C   UNL     1      -8.820  -9.980  18.279  0.00  0.00    +0.000 A 
ATOM      7  C   UNL     1      -8.661  -9.029  19.282  0.00  0.00    +0.000 A 
ATOM      8  C   UNL     1      -9.010  -7.709  19.041  0.00  0.00    +0.000 A 
ATOM      9  C   UNL     1      -9.580  -7.346  17.814  0.00  0.00    +0.000 A 
ATOM     10  C   UNL     1      -9.782  -8.312  16.828  0.00  0.00    +0.000 A 
ATOM     11  H   UNL     1      -8.467 -10.993  18.460  0.00  0.00    +0.000 HD
ATOM     12  H   UNL     1      -8.187  -9.311  20.216  0.00  0.00    +0.000 HD
ATOM     13  H   UNL     1      -9.889  -6.317  17.621  0.00  0.00    +0.000 HD
ATOM     14  H   UNL     1     -10.241  -8.010  15.886  0.00  0.00    +0.000 HD
BRANCH   5  15
ATOM     15  C   UNL     1      -9.538 -10.704  15.975  0.00  0.00    +0.000 C 
ATOM     16  H   UNL     1     -10.602 -10.962  15.884  0.00  0.00    +0.000 HD
BRANCH  15  17
ATOM     17  C   UNL     1      -9.104 -10.162  14.608  0.00  0.00    +0.000 C 
ATOM     18  H   UNL     1      -8.336  -9.387  14.697  0.00  0.00    +0.000 HD
ATOM     19  H   UNL     1      -9.956  -9.726  14.073  0.00  0.00    +0.000 HD
ATOM     20  H   UNL     1      -8.698 -10.966  13.987  0.00  0.00    +0.000 HD
ENDBRANCH  15  17
BRANCH  15  21
ATOM     21  C   UNL     1      -8.777 -11.998  16.323  0.00  0.00    +0.000 C 
ATOM     22  H   UNL     1      -7.854 -11.739  16.856  0.00  0.00    +0.000 HD
ATOM     23  H   UNL     1      -9.365 -12.626  17.002  0.00  0.00    +0.000 HD
BRANCH  21  24
ATOM     24  C   UNL     1      -8.400 -12.814  15.090  0.00  0.00    +0.000 C 
ATOM     25  H   UNL     1      -7.407 -13.256  15.221  0.00  0.00    +0.000 HD
ATOM     26  H   UNL     1      -8.375 -12.182  14.197  0.00  0.00    +0.000 HD
ATOM     27  H   UNL     1      -9.103 -13.633  14.913  0.00  0.00    +0.000 HD
ENDBRANCH  21  24
ENDBRANCH  15  21
ENDBRANCH   5  15
ENDBRANCH   1   8
BRANCH   2  28
ATOM     28  C   UNL     1      -7.773  -4.834  21.120  0.00  0.00    +0.000 C 
ATOM     29  H   UNL     1      -6.808  -5.073  21.600  0.00  0.00    +0.000 HD
ATOM     30  H   UNL     1      -8.548  -5.120  21.839  0.00  0.00    +0.000 HD
BRANCH  28  31
ATOM     31  N   UNL     1      -7.820  -3.395  20.899  0.00  0.00    +0.000 N 
ATOM     32  C   UNL     1      -8.982  -2.821  20.407  0.00  0.00    +0.000 C 
ATOM     33  O   UNL     1      -9.753  -3.289  19.590  0.00  0.00    +0.000 OA
ATOM     34  N   UNL     1      -9.250  -1.666  21.162  0.00  0.00    +0.000 N 
ATOM     35  C   UNL     1      -8.612  -1.859  22.430  0.00  0.00    +0.000 C 
ATOM     36  C   UNL     1      -9.461  -2.845  23.291  0.00  0.00    +0.000 C 
ATOM     37  C   UNL     1      -8.789  -2.939  24.679  0.00  0.00    +0.000 C 
ATOM     38  C   UNL     1      -8.703  -1.415  24.718  0.00  0.00    +0.000 A 
ATOM     39  C   UNL     1      -8.920  -0.680  25.871  0.00  0.00    +0.000 A 
ATOM     40  C   UNL     1      -8.922   0.709  25.765  0.00  0.00    +0.000 A 
ATOM     41  C   UNL     1      -8.649   1.332  24.532  0.00  0.00    +0.000 A 
ATOM     42  C   UNL     1      -8.439   0.579  23.368  0.00  0.00    +0.000 A 
ATOM     43  C   UNL     1      -8.511  -0.800  23.460  0.00  0.00    +0.000 A 
ATOM     44  C   UNL     1      -7.384  -2.610  21.951  0.00  0.00    +0.000 C 
ATOM     45  O   UNL     1      -6.283  -2.701  22.480  0.00  0.00    +0.000 OA
ATOM     46  H   UNL     1     -10.187  -1.290  21.088  0.00  0.00    +0.000 HD
ATOM     47  H   UNL     1      -9.605  -3.836  22.840  0.00  0.00    +0.000 HD
ATOM     48  H   UNL     1     -10.495  -2.468  23.399  0.00  0.00    +0.000 HD
ATOM     49  H   UNL     1      -8.208  -3.792  24.269  0.00  0.00    +0.000 HD
ATOM     50  H   UNL     1      -7.779  -2.900  25.147  0.00  0.00    +0.000 HD
ATOM     51  H   UNL     1      -9.148  -1.172  26.808  0.00  0.00    +0.000 HD
ATOM     52  H   UNL     1      -9.146   1.307  26.644  0.00  0.00    +0.000 HD
ATOM     53  H   UNL     1      -8.644   2.418  24.488  0.00  0.00    +0.000 HD
ATOM     54  H   UNL     1      -8.282   1.082  22.418  0.00  0.00    +0.000 HD
ENDBRANCH  28  31
ENDBRANCH   2  28
TORSDOF 7
ENDMDL
MODEL 2
REMARK VINA RESULT:   -10.348      5.555      6.838
REMARK INTER + INTRA:         -14.446
REMARK INTER:                 -13.969
REMARK INTRA:                  -0.477
REMARK UNBOUND:                -0.468
REMARK  Name = 
REMARK  7 active torsions:
REMARK  status: ('A' for Active; 'I' for Inactive)
REMARK    1  A    between atoms: C_1  and  C_2
REMARK    2  A    between atoms: C_2  and  C_3
REMARK    3  A    between atoms: C_3  and  C_4
REMARK    4  A    between atoms: C_3  and  C_5
REMARK    5  A    between atoms: C_8  and  N_9
REMARK    6  A    between atoms: C_10  and  C_12
REMARK    7  A    between atoms: C_12  and  N_13
REMARK                            x       y       z     vdW  Elec       q    Type
REMARK                         _______ _______ _______ _____ _____    ______ ____
ROOT
ATOM      1  N   UNL     1      -9.847  -7.982  15.348  0.00  0.00    +0.000 N 
ATOM      2  C   UNL     1      -9.127  -6.893  15.788  0.00  0.00    +0.000 C 
ATOM      3  O   UNL     1      -8.052  -6.936  16.389  0.00  0.00    +0.000 OA
ATOM      4  H   UNL     1     -10.809  -7.818  15.072  0.00  0.00    +0.000 HD
ENDROOT
BRANCH   1   8
ATOM      5  C   UNL     1      -8.722 -11.900  16.371  0.00  0.00    +0.000 A 
ATOM      6  C   UNL     1      -9.368 -11.057  17.286  0.00  0.00    +0.000 A 
ATOM      7  C   UNL     1      -9.773  -9.777  16.919  0.00  0.00    +0.000 A 
ATOM      8  C   UNL     1      -9.476  -9.298  15.652  0.00  0.00    +0.000 A 
ATOM      9  C   UNL     1      -8.828 -10.123  14.723  0.00  0.00    +0.000 A 
ATOM     10  C   UNL     1      -8.466 -11.423  15.081  0.00  0.00    +0.000 A 
ATOM     11  H   UNL     1      -9.540 -11.385  18.309  0.00  0.00    +0.000 HD
ATOM     12  H   UNL     1     -10.242  -9.133  17.654  0.00  0.00    +0.000 HD
ATOM     13  H   UNL     1      -8.615  -9.772  13.712  0.00  0.00    +0.000 HD
ATOM     14  H   UNL     1      -7.976 -12.052  14.337  0.00  0.00    +0.000 HD
BRANCH   5  15
ATOM     15  C   UNL     1      -8.287 -13.284  16.816  0.00  0.00    +0.000 C 
ATOM     16  H   UNL     1      -7.235 -13.426  16.533  0.00  0.00    +0.000 HD
BRANCH  15  17
ATOM     17  C   UNL     1      -8.346 -13.406  18.343  0.00  0.00    +0.000 C 
ATOM     18  H   UNL     1      -9.347 -13.675  18.696  0.00  0.00    +0.000 HD
ATOM     19  H   UNL     1      -8.068 -12.459  18.820  0.00  0.00    +0.000 HD
ATOM     20  H   UNL     1      -7.649 -14.173  18.694  0.00  0.00    +0.000 HD
ENDBRANCH  15  17
BRANCH  15  21
ATOM     21  C   UNL     1      -9.102 -14.403  16.140  0.00  0.00    +0.000 C 
ATOM     22  H   UNL     1      -9.044 -15.311  16.755  0.00  0.00    +0.000 HD
ATOM     23  H   UNL     1     -10.162 -14.134  16.080  0.00  0.00    +0.000 HD
BRANCH  21  24
ATOM     24  C   UNL     1      -8.594 -14.745  14.743  0.00  0.00    +0.000 C 
ATOM     25  H   UNL     1      -7.897 -13.976  14.397  0.00  0.00    +0.000 HD
ATOM     26  H   UNL     1      -9.423 -14.798  14.029  0.00  0.00    +0.000 HD
ATOM     27  H   UNL     1      -8.065 -15.702  14.724  0.00  0.00    +0.000 HD
ENDBRANCH  21  24
ENDBRANCH  15  21
ENDBRANCH   5  15
ENDBRANCH   1   8
BRANCH   2  28
ATOM     28  C   UNL     1      -9.662  -5.561  15.308  0.00  0.00    +0.000 C 
ATOM     29  H   UNL     1      -9.840  -5.713  14.229  0.00  0.00    +0.000 HD
ATOM     30  H   UNL     1      -8.866  -4.813  15.382  0.00  0.00    +0.000 HD
BRANCH  28  31
ATOM     31  N   UNL     1     -10.886  -5.031  15.894  0.00  0.00    +0.000 N 
ATOM     32  C   UNL     1     -10.858  -4.533  17.188  0.00  0.00    +0.000 C 
ATOM     33  O   UNL     1     -10.214  -4.951  18.131  0.00  0.00    +0.000 OA
ATOM     34  N   UNL     1     -11.556  -3.313  17.198  0.00  0.00    +0.000 N 
ATOM     35  C   UNL     1     -11.497  -2.805  15.861  0.00  0.00    +0.000 C 
ATOM     36  C   UNL     1     -10.080  -2.206  15.597  0.00  0.00    +0.000 C 
ATOM     37  C   UNL     1     -10.100  -1.582  14.183  0.00  0.00    +0.000 C 
ATOM     38  C   UNL     1     -11.417  -0.891  14.529  0.00  0.00    +0.000 A 
ATOM     39  C   UNL     1     -11.718   0.397  14.122  0.00  0.00    +0.000 A 
ATOM     40  C   UNL     1     -12.902   0.966  14.586  0.00  0.00    +0.000 A 
ATOM     41  C   UNL     1     -13.783   0.221  15.392  0.00  0.00    +0.000 A 
ATOM     42  C   UNL     1     -13.466  -1.080  15.808  0.00  0.00    +0.000 A 
ATOM     43  C   UNL     1     -12.255  -1.617  15.405  0.00  0.00    +0.000 A 
ATOM     44  C   UNL     1     -11.582  -4.123  15.116  0.00  0.00    +0.000 C 
ATOM     45  O   UNL     1     -11.977  -4.341  13.977  0.00  0.00    +0.000 OA
ATOM     46  H   UNL     1     -11.404  -2.716  18.002  0.00  0.00    +0.000 HD
ATOM     47  H   UNL     1      -9.254  -2.920  15.716  0.00  0.00    +0.000 HD
ATOM     48  H   UNL     1      -9.847  -1.428  16.348  0.00  0.00    +0.000 HD
ATOM     49  H   UNL     1      -9.755  -2.570  13.812  0.00  0.00    +0.000 HD
ATOM     50  H   UNL     1     -10.569  -1.737  13.185  0.00  0.00    +0.000 HD
ATOM     51  H   UNL     1     -11.022   0.965  13.518  0.00  0.00    +0.000 HD
ATOM     52  H   UNL     1     -13.132   1.995  14.326  0.00  0.00    +0.000 HD
ATOM     53  H   UNL     1     -14.706   0.690  15.725  0.00  0.00    +0.000 HD
ATOM     54  H   UNL     1     -14.137  -1.617  16.471  0.00  0.00    +0.000 HD
ENDBRANCH  28  31
ENDBRANCH   2  28
TORSDOF 7
ENDMDL
MODEL 3
REMARK VINA RESULT:   -10.268      3.140      4.433
REMARK INTER + INTRA:         -14.338
REMARK INTER:                 -13.740
REMARK INTRA:                  -0.599
REMARK UNBOUND:                -0.468
REMARK  Name = 
REMARK  7 active torsions:
REMARK  status: ('A' for Active; 'I' for Inactive)
REMARK    1  A    between atoms: C_1  and  C_2
REMARK    2  A    between atoms: C_2  and  C_3
REMARK    3  A    between atoms: C_3  and  C_4
REMARK    4  A    between atoms: C_3  and  C_5
REMARK    5  A    between atoms: C_8  and  N_9
REMARK    6  A    between atoms: C_10  and  C_12
REMARK    7  A    between atoms: C_12  and  N_13
REMARK                            x       y       z     vdW  Elec       q    Type
REMARK                         _______ _______ _______ _____ _____    ______ ____
ROOT
ATOM      1  N   UNL     1     -10.233  -7.487  17.138  0.00  0.00    +0.000 N 
ATOM      2  C   UNL     1      -9.471  -6.403  16.761  0.00  0.00    +0.000 C 
ATOM      3  O   UNL     1      -8.416  -6.451  16.127  0.00  0.00    +0.000 OA
ATOM      4  H   UNL     1     -10.947  -7.327  17.840  0.00  0.00    +0.000 HD
ENDROOT
BRANCH   1   8
ATOM      5  C   UNL     1      -8.883 -11.431  16.601  0.00  0.00    +0.000 A 
ATOM      6  C   UNL     1      -8.720 -10.756  17.819  0.00  0.00    +0.000 A 
ATOM      7  C   UNL     1      -9.210  -9.466  17.995  0.00  0.00    +0.000 A 
ATOM      8  C   UNL     1      -9.811  -8.807  16.933  0.00  0.00    +0.000 A 
ATOM      9  C   UNL     1      -9.982  -9.461  15.706  0.00  0.00    +0.000 A 
ATOM     10  C   UNL     1      -9.531 -10.773  15.549  0.00  0.00    +0.000 A 
ATOM     11  H   UNL     1      -8.181 -11.226  18.639  0.00  0.00    +0.000 HD
ATOM     12  H   UNL     1      -9.043  -8.954  18.936  0.00  0.00    +0.000 HD
ATOM     13  H   UNL     1     -10.480  -8.967  14.871  0.00  0.00    +0.000 HD
ATOM     14  H   UNL     1      -9.687 -11.268  14.590  0.00  0.00    +0.000 HD
BRANCH   5  15
ATOM     15  C   UNL     1      -8.324 -12.833  16.448  0.00  0.00    +0.000 C 
ATOM     16  H   UNL     1      -7.236 -12.791  16.597  0.00  0.00    +0.000 HD
BRANCH  15  17
ATOM     17  C   UNL     1      -8.876 -13.759  17.537  0.00  0.00    +0.000 C 
ATOM     18  H   UNL     1      -9.905 -13.504  17.812  0.00  0.00    +0.000 HD
ATOM     19  H   UNL     1      -8.264 -13.701  18.445  0.00  0.00    +0.000 HD
ATOM     20  H   UNL     1      -8.868 -14.799  17.197  0.00  0.00    +0.000 HD
ENDBRANCH  15  17
BRANCH  15  21
ATOM     21  C   UNL     1      -8.574 -13.418  15.045  0.00  0.00    +0.000 C 
ATOM     22  H   UNL     1      -9.407 -12.879  14.575  0.00  0.00    +0.000 HD
ATOM     23  H   UNL     1      -7.702 -13.272  14.398  0.00  0.00    +0.000 HD
BRANCH  21  24
ATOM     24  C   UNL     1      -8.929 -14.902  15.075  0.00  0.00    +0.000 C 
ATOM     25  H   UNL     1      -9.953 -15.052  14.719  0.00  0.00    +0.000 HD
ATOM     26  H   UNL     1      -8.862 -15.297  16.094  0.00  0.00    +0.000 HD
ATOM     27  H   UNL     1      -8.268 -15.492  14.434  0.00  0.00    +0.000 HD
ENDBRANCH  21  24
ENDBRANCH  15  21
ENDBRANCH   5  15
ENDBRANCH   1   8
BRANCH   2  28
ATOM     28  C   UNL     1     -10.126  -5.064  17.022  0.00  0.00    +0.000 C 
ATOM     29  H   UNL     1     -11.122  -5.153  16.553  0.00  0.00    +0.000 HD
ATOM     30  H   UNL     1      -9.592  -4.294  16.456  0.00  0.00    +0.000 HD
BRANCH  28  31
ATOM     31  N   UNL     1     -10.315  -4.618  18.396  0.00  0.00    +0.000 N 
ATOM     32  C   UNL     1      -9.205  -4.300  19.165  0.00  0.00    +0.000 C 
ATOM     33  O   UNL     1      -8.117  -4.844  19.159  0.00  0.00    +0.000 OA
ATOM     34  N   UNL     1      -9.471  -3.092  19.833  0.00  0.00    +0.000 N 
ATOM     35  C   UNL     1     -10.453  -2.407  19.047  0.00  0.00    +0.000 C 
ATOM     36  C   UNL     1      -9.766  -1.779  17.794  0.00  0.00    +0.000 C 
ATOM     37  C   UNL     1     -10.843  -0.968  17.037  0.00  0.00    +0.000 C 
ATOM     38  C   UNL     1     -11.261  -0.329  18.360  0.00  0.00    +0.000 A 
ATOM     39  C   UNL     1     -11.621   1.003  18.468  0.00  0.00    +0.000 A 
ATOM     40  C   UNL     1     -11.880   1.504  19.742  0.00  0.00    +0.000 A 
ATOM     41  C   UNL     1     -11.833   0.658  20.866  0.00  0.00    +0.000 A 
ATOM     42  C   UNL     1     -11.459  -0.689  20.747  0.00  0.00    +0.000 A 
ATOM     43  C   UNL     1     -11.131  -1.167  19.490  0.00  0.00    +0.000 A 
ATOM     44  C   UNL     1     -11.246  -3.611  18.579  0.00  0.00    +0.000 C 
ATOM     45  O   UNL     1     -12.416  -3.671  18.220  0.00  0.00    +0.000 OA
ATOM     46  H   UNL     1      -8.670  -2.611  20.223  0.00  0.00    +0.000 HD
ATOM     47  H   UNL     1      -9.266  -2.504  17.138  0.00  0.00    +0.000 HD
ATOM     48  H   UNL     1      -8.941  -1.111  18.103  0.00  0.00    +0.000 HD
ATOM     49  H   UNL     1     -11.048  -1.897  16.464  0.00  0.00    +0.000 HD
ATOM     50  H   UNL     1     -11.936  -0.985  16.825  0.00  0.00    +0.000 HD
ATOM     51  H   UNL     1     -11.634   1.647  17.598  0.00  0.00    +0.000 HD
ATOM     52  H   UNL     1     -12.110   2.560  19.859  0.00  0.00    +0.000 HD
ATOM     53  H   UNL     1     -12.056   1.078  21.844  0.00  0.00    +0.000 HD
ATOM     54  H   UNL     1     -11.380  -1.310  21.634  0.00  0.00    +0.000 HD
ENDBRANCH  28  31
ENDBRANCH   2  28
TORSDOF 7
ENDMDL
MODEL 4
REMARK VINA RESULT:   -10.248      1.483      2.406
REMARK INTER + INTRA:         -14.311
REMARK INTER:                 -13.696
REMARK INTRA:                  -0.615
REMARK UNBOUND:                -0.468
REMARK  Name = 
REMARK  7 active torsions:
REMARK  status: ('A' for Active; 'I' for Inactive)
REMARK    1  A    between atoms: C_1  and  C_2
REMARK    2  A    between atoms: C_2  and  C_3
REMARK    3  A    between atoms: C_3  and  C_4
REMARK    4  A    between atoms: C_3  and  C_5
REMARK    5  A    between atoms: C_8  and  N_9
REMARK    6  A    between atoms: C_10  and  C_12
REMARK    7  A    between atoms: C_12  and  N_13
REMARK                            x       y       z     vdW  Elec       q    Type
REMARK                         _______ _______ _______ _____ _____    ______ ____
ROOT
ATOM      1  N   UNL     1      -9.121  -6.279  19.688  0.00  0.00    +0.000 N 
ATOM      2  C   UNL     1      -8.013  -5.591  20.131  0.00  0.00    +0.000 C 
ATOM      3  O   UNL     1      -6.848  -5.989  20.072  0.00  0.00    +0.000 OA
ATOM      4  H   UNL     1     -10.027  -5.941  19.997  0.00  0.00    +0.000 HD
ENDROOT
BRANCH   1   8
ATOM      5  C   UNL     1      -8.974 -10.203  18.191  0.00  0.00    +0.000 A 
ATOM      6  C   UNL     1      -9.256  -9.109  17.361  0.00  0.00    +0.000 A 
ATOM      7  C   UNL     1      -9.259  -7.811  17.863  0.00  0.00    +0.000 A 
ATOM      8  C   UNL     1      -9.047  -7.595  19.216  0.00  0.00    +0.000 A 
ATOM      9  C   UNL     1      -8.766  -8.675  20.064  0.00  0.00    +0.000 A 
ATOM     10  C   UNL     1      -8.717  -9.971  19.547  0.00  0.00    +0.000 A 
ATOM     11  H   UNL     1      -9.503  -9.263  16.313  0.00  0.00    +0.000 HD
ATOM     12  H   UNL     1      -9.511  -6.984  17.208  0.00  0.00    +0.000 HD
ATOM     13  H   UNL     1      -8.566  -8.519  21.125  0.00  0.00    +0.000 HD
ATOM     14  H   UNL     1      -8.483 -10.795  20.222  0.00  0.00    +0.000 HD
BRANCH   5  15
ATOM     15  C   UNL     1      -8.992 -11.602  17.605  0.00  0.00    +0.000 C 
ATOM     16  H   UNL     1     -10.026 -11.974  17.623  0.00  0.00    +0.000 HD
BRANCH  15  17
ATOM     17  C   UNL     1      -8.564 -11.580  16.133  0.00  0.00    +0.000 C 
ATOM     18  H   UNL     1      -8.348 -10.565  15.782  0.00  0.00    +0.000 HD
ATOM     19  H   UNL     1      -9.352 -11.993  15.492  0.00  0.00    +0.000 HD
ATOM     20  H   UNL     1      -7.664 -12.184  15.985  0.00  0.00    +0.000 HD
ENDBRANCH  15  17
BRANCH  15  21
ATOM     21  C   UNL     1      -8.132 -12.592  18.415  0.00  0.00    +0.000 C 
ATOM     22  H   UNL     1      -7.243 -12.857  17.830  0.00  0.00    +0.000 HD
ATOM     23  H   UNL     1      -7.772 -12.130  19.340  0.00  0.00    +0.000 HD
BRANCH  21  24
ATOM     24  C   UNL     1      -8.875 -13.880  18.757  0.00  0.00    +0.000 C 
ATOM     25  H   UNL     1      -9.063 -13.931  19.834  0.00  0.00    +0.000 HD
ATOM     26  H   UNL     1      -8.284 -14.757  18.474  0.00  0.00    +0.000 HD
ATOM     27  H   UNL     1      -9.842 -13.939  18.251  0.00  0.00    +0.000 HD
ENDBRANCH  21  24
ENDBRANCH  15  21
ENDBRANCH   5  15
ENDBRANCH   1   8
BRANCH   2  28
ATOM     28  C   UNL     1      -8.295  -4.165  20.550  0.00  0.00    +0.000 C 
ATOM     29  H   UNL     1      -9.398  -4.104  20.583  0.00  0.00    +0.000 HD
ATOM     30  H   UNL     1      -7.979  -3.491  19.747  0.00  0.00    +0.000 HD
BRANCH  28  31
ATOM     31  N   UNL     1      -7.782  -3.681  21.824  0.00  0.00    +0.000 N 
ATOM     32  C   UNL     1      -6.554  -3.038  21.861  0.00  0.00    +0.000 C 
ATOM     33  O   UNL     1      -5.564  -3.288  21.199  0.00  0.00    +0.000 OA
ATOM     34  N   UNL     1      -6.687  -1.890  22.662  0.00  0.00    +0.000 N 
ATOM     35  C   UNL     1      -8.074  -1.535  22.625  0.00  0.00    +0.000 C 
ATOM     36  C   UNL     1      -8.395  -0.848  21.261  0.00  0.00    +0.000 C 
ATOM     37  C   UNL     1      -9.872  -0.393  21.312  0.00  0.00    +0.000 C 
ATOM     38  C   UNL     1      -9.616   0.215  22.689  0.00  0.00    +0.000 A 
ATOM     39  C   UNL     1     -10.170   1.417  23.093  0.00  0.00    +0.000 A 
ATOM     40  C   UNL     1      -9.781   1.929  24.330  0.00  0.00    +0.000 A 
ATOM     41  C   UNL     1      -8.901   1.206  25.156  0.00  0.00    +0.000 A 
ATOM     42  C   UNL     1      -8.337  -0.007  24.735  0.00  0.00    +0.000 A 
ATOM     43  C   UNL     1      -8.667  -0.477  23.475  0.00  0.00    +0.000 A 
ATOM     44  C   UNL     1      -8.663  -2.932  22.584  0.00  0.00    +0.000 C 
ATOM     45  O   UNL     1      -9.772  -3.311  22.940  0.00  0.00    +0.000 OA
ATOM     46  H   UNL     1      -5.957  -1.195  22.575  0.00  0.00    +0.000 HD
ATOM     47  H   UNL     1      -8.191  -1.469  20.379  0.00  0.00    +0.000 HD
ATOM     48  H   UNL     1      -7.738   0.028  21.108  0.00  0.00    +0.000 HD
ATOM     49  H   UNL     1     -10.125  -1.383  20.876  0.00  0.00    +0.000 HD
ATOM     50  H   UNL     1     -10.849  -0.701  21.749  0.00  0.00    +0.000 HD
ATOM     51  H   UNL     1     -10.831   1.972  22.439  0.00  0.00    +0.000 HD
ATOM     52  H   UNL     1     -10.159   2.898  24.644  0.00  0.00    +0.000 HD
ATOM     53  H   UNL     1      -8.630   1.627  26.121  0.00  0.00    +0.000 HD
ATOM     54  H   UNL     1      -7.620  -0.521  25.368  0.00  0.00    +0.000 HD
ENDBRANCH  28  31
ENDBRANCH   2  28
TORSDOF 7
ENDMDL
MODEL 5
REMARK VINA RESULT:    -9.962      5.318      7.623
REMARK INTER + INTRA:         -13.925
REMARK INTER:                 -13.462
REMARK INTRA:                  -0.462
REMARK UNBOUND:                -0.468
REMARK  Name = 
REMARK  7 active torsions:
REMARK  status: ('A' for Active; 'I' for Inactive)
REMARK    1  A    between atoms: C_1  and  C_2
REMARK    2  A    between atoms: C_2  and  C_3
REMARK    3  A    between atoms: C_3  and  C_4
REMARK    4  A    between atoms: C_3  and  C_5
REMARK    5  A    between atoms: C_8  and  N_9
REMARK    6  A    between atoms: C_10  and  C_12
REMARK    7  A    between atoms: C_12  and  N_13
REMARK                            x       y       z     vdW  Elec       q    Type
REMARK                         _______ _______ _______ _____ _____    ______ ____
ROOT
ATOM      1  N   UNL     1      -9.616  -6.831  16.598  0.00  0.00    +0.000 N 
ATOM      2  C   UNL     1     -10.435  -6.148  17.471  0.00  0.00    +0.000 C 
ATOM      3  O   UNL     1     -11.054  -6.643  18.414  0.00  0.00    +0.000 OA
ATOM      4  H   UNL     1      -9.351  -6.352  15.744  0.00  0.00    +0.000 HD
ENDROOT
BRANCH   1   8
ATOM      5  C   UNL     1      -9.158 -11.006  16.753  0.00  0.00    +0.000 A 
ATOM      6  C   UNL     1      -8.864 -10.192  17.856  0.00  0.00    +0.000 A 
ATOM      7  C   UNL     1      -9.061  -8.815  17.803  0.00  0.00    +0.000 A 
ATOM      8  C   UNL     1      -9.492  -8.226  16.624  0.00  0.00    +0.000 A 
ATOM      9  C   UNL     1      -9.789  -9.020  15.509  0.00  0.00    +0.000 A 
ATOM     10  C   UNL     1      -9.634 -10.406  15.581  0.00  0.00    +0.000 A 
ATOM     11  H   UNL     1      -8.450 -10.625  18.764  0.00  0.00    +0.000 HD
ATOM     12  H   UNL     1      -8.796  -8.204  18.659  0.00  0.00    +0.000 HD
ATOM     13  H   UNL     1     -10.158  -8.575  14.584  0.00  0.00    +0.000 HD
ATOM     14  H   UNL     1      -9.885 -11.006  14.706  0.00  0.00    +0.000 HD
BRANCH   5  15
ATOM     15  C   UNL     1      -8.918 -12.501  16.849  0.00  0.00    +0.000 C 
ATOM     16  H   UNL     1      -9.890 -13.012  16.813  0.00  0.00    +0.000 HD
BRANCH  15  17
ATOM     17  C   UNL     1      -8.120 -13.000  15.639  0.00  0.00    +0.000 C 
ATOM     18  H   UNL     1      -8.763 -13.461  14.883  0.00  0.00    +0.000 HD
ATOM     19  H   UNL     1      -7.376 -13.746  15.944  0.00  0.00    +0.000 HD
ATOM     20  H   UNL     1      -7.584 -12.172  15.164  0.00  0.00    +0.000 HD
ENDBRANCH  15  17
BRANCH  15  21
ATOM     21  C   UNL     1      -8.233 -12.905  18.168  0.00  0.00    +0.000 C 
ATOM     22  H   UNL     1      -7.180 -13.142  17.968  0.00  0.00    +0.000 HD
ATOM     23  H   UNL     1      -8.235 -12.072  18.881  0.00  0.00    +0.000 HD
BRANCH  21  24
ATOM     24  C   UNL     1      -8.877 -14.123  18.822  0.00  0.00    +0.000 C 
ATOM     25  H   UNL     1      -8.117 -14.882  19.036  0.00  0.00    +0.000 HD
ATOM     26  H   UNL     1      -9.626 -14.570  18.161  0.00  0.00    +0.000 HD
ATOM     27  H   UNL     1      -9.362 -13.869  19.769  0.00  0.00    +0.000 HD
ENDBRANCH  21  24
ENDBRANCH  15  21
ENDBRANCH   5  15
ENDBRANCH   1   8
BRANCH   2  28
ATOM     28  C   UNL     1     -10.390  -4.644  17.314  0.00  0.00    +0.000 C 
ATOM     29  H   UNL     1      -9.543  -4.467  16.627  0.00  0.00    +0.000 HD
ATOM     30  H   UNL     1     -10.101  -4.198  18.272  0.00  0.00    +0.000 HD
BRANCH  28  31
ATOM     31  N   UNL     1     -11.552  -3.946  16.782  0.00  0.00    +0.000 N 
ATOM     32  C   UNL     1     -11.757  -2.615  17.114  0.00  0.00    +0.000 C 
ATOM     33  O   UNL     1     -11.523  -2.071  18.177  0.00  0.00    +0.000 OA
ATOM     34  N   UNL     1     -12.100  -1.923  15.940  0.00  0.00    +0.000 N 
ATOM     35  C   UNL     1     -11.549  -2.677  14.854  0.00  0.00    +0.000 C 
ATOM     36  C   UNL     1     -10.011  -2.424  14.776  0.00  0.00    +0.000 C 
ATOM     37  C   UNL     1      -9.485  -3.174  13.531  0.00  0.00    +0.000 C 
ATOM     38  C   UNL     1     -10.627  -2.577  12.713  0.00  0.00    +0.000 A 
ATOM     39  C   UNL     1     -10.470  -2.148  11.407  0.00  0.00    +0.000 A 
ATOM     40  C   UNL     1     -11.553  -1.521  10.794  0.00  0.00    +0.000 A 
ATOM     41  C   UNL     1     -12.780  -1.391  11.472  0.00  0.00    +0.000 A 
ATOM     42  C   UNL     1     -12.928  -1.822  12.798  0.00  0.00    +0.000 A 
ATOM     43  C   UNL     1     -11.829  -2.378  13.430  0.00  0.00    +0.000 A 
ATOM     44  C   UNL     1     -11.756  -4.068  15.419  0.00  0.00    +0.000 C 
ATOM     45  O   UNL     1     -11.865  -5.133  14.824  0.00  0.00    +0.000 OA
ATOM     46  H   UNL     1     -12.028  -0.913  15.978  0.00  0.00    +0.000 HD
ATOM     47  H   UNL     1      -9.458  -2.700  15.683  0.00  0.00    +0.000 HD
ATOM     48  H   UNL     1      -9.805  -1.342  14.677  0.00  0.00    +0.000 HD
ATOM     49  H   UNL     1      -9.311  -4.039  14.206  0.00  0.00    +0.000 HD
ATOM     50  H   UNL     1      -9.685  -4.095  12.938  0.00  0.00    +0.000 HD
ATOM     51  H   UNL     1      -9.515  -2.236  10.904  0.00  0.00    +0.000 HD
ATOM     52  H   UNL     1     -11.436  -1.125   9.789  0.00  0.00    +0.000 HD
ATOM     53  H   UNL     1     -13.610  -0.911  10.959  0.00  0.00    +0.000 HD
ATOM     54  H   UNL     1     -13.868  -1.665  13.318  0.00  0.00    +0.000 HD
ENDBRANCH  28  31
ENDBRANCH   2  28
TORSDOF 7
ENDMDL
MODEL 6
REMARK VINA RESULT:    -9.791      3.261      4.167
REMARK INTER + INTRA:         -13.693
REMARK INTER:                 -12.859
REMARK INTRA:                  -0.834
REMARK UNBOUND:                -0.468
REMARK  Name = 
REMARK  7 active torsions:
REMARK  status: ('A' for Active; 'I' for Inactive)
REMARK    1  A    between atoms: C_1  and  C_2
REMARK    2  A    between atoms: C_2  and  C_3
REMARK    3  A    between atoms: C_3  and  C_4
REMARK    4  A    between atoms: C_3  and  C_5
REMARK    5  A    between atoms: C_8  and  N_9
REMARK    6  A    between atoms: C_10  and  C_12
REMARK    7  A    between atoms: C_12  and  N_13
REMARK                            x       y       z     vdW  Elec       q    Type
REMARK                         _______ _______ _______ _____ _____    ______ ____
ROOT
ATOM      1  N   UNL     1      -9.906  -7.448  18.380  0.00  0.00    +0.000 N 
ATOM      2  C   UNL     1      -9.038  -6.385  18.273  0.00  0.00    +0.000 C 
ATOM      3  O   UNL     1      -7.944  -6.403  17.705  0.00  0.00    +0.000 OA
ATOM      4  H   UNL     1     -10.657  -7.364  19.057  0.00  0.00    +0.000 HD
ENDROOT
BRANCH   1   8
ATOM      5  C   UNL     1      -8.813 -11.309  17.130  0.00  0.00    +0.000 A 
ATOM      6  C   UNL     1      -8.508 -10.837  18.414  0.00  0.00    +0.000 A 
ATOM      7  C   UNL     1      -8.914  -9.572  18.828  0.00  0.00    +0.000 A 
ATOM      8  C   UNL     1      -9.572  -8.735  17.940  0.00  0.00    +0.000 A 
ATOM      9  C   UNL     1      -9.885  -9.186  16.650  0.00  0.00    +0.000 A 
ATOM     10  C   UNL     1      -9.517 -10.473  16.255  0.00  0.00    +0.000 A 
ATOM     11  H   UNL     1      -7.923 -11.447  19.099  0.00  0.00    +0.000 HD
ATOM     12  H   UNL     1      -8.637  -9.218  19.815  0.00  0.00    +0.000 HD
ATOM     13  H   UNL     1     -10.430  -8.551  15.950  0.00  0.00    +0.000 HD
ATOM     14  H   UNL     1      -9.784 -10.808  15.252  0.00  0.00    +0.000 HD
BRANCH   5  15
ATOM     15  C   UNL     1      -8.342 -12.690  16.715  0.00  0.00    +0.000 C 
ATOM     16  H   UNL     1      -7.246 -12.720  16.789  0.00  0.00    +0.000 HD
BRANCH  15  17
ATOM     17  C   UNL     1      -8.872 -13.757  17.679  0.00  0.00    +0.000 C 
ATOM     18  H   UNL     1      -8.093 -14.126  18.354  0.00  0.00    +0.000 HD
ATOM     19  H   UNL     1      -9.272 -14.616  17.129  0.00  0.00    +0.000 HD
ATOM     20  H   UNL     1      -9.682 -13.350  18.294  0.00  0.00    +0.000 HD
ENDBRANCH  15  17
BRANCH  15  21
ATOM     21  C   UNL     1      -8.714 -13.028  15.258  0.00  0.00    +0.000 C 
ATOM     22  H   UNL     1      -9.723 -12.651  15.049  0.00  0.00    +0.000 HD
ATOM     23  H   UNL     1      -8.040 -12.526  14.556  0.00  0.00    +0.000 HD
BRANCH  21  24
ATOM     24  C   UNL     1      -8.702 -14.527  14.975  0.00  0.00    +0.000 C 
ATOM     25  H   UNL     1      -9.125 -14.727  13.986  0.00  0.00    +0.000 HD
ATOM     26  H   UNL     1      -9.299 -15.069  15.716  0.00  0.00    +0.000 HD
ATOM     27  H   UNL     1      -7.687 -14.936  14.987  0.00  0.00    +0.000 HD
ENDBRANCH  21  24
ENDBRANCH  15  21
ENDBRANCH   5  15
ENDBRANCH   1   8
BRANCH   2  28
ATOM     28  C   UNL     1      -9.606  -5.069  18.758  0.00  0.00    +0.000 C 
ATOM     29  H   UNL     1      -8.785  -4.617  19.342  0.00  0.00    +0.000 HD
ATOM     30  H   UNL     1     -10.409  -5.274  19.473  0.00  0.00    +0.000 HD
BRANCH  28  31
ATOM     31  N   UNL     1     -10.059  -4.085  17.784  0.00  0.00    +0.000 N 
ATOM     32  C   UNL     1     -11.329  -4.203  17.240  0.00  0.00    +0.000 C 
ATOM     33  O   UNL     1     -11.921  -5.226  16.951  0.00  0.00    +0.000 OA
ATOM     34  N   UNL     1     -11.929  -2.932  17.256  0.00  0.00    +0.000 N 
ATOM     35  C   UNL     1     -11.283  -2.197  18.302  0.00  0.00    +0.000 C 
ATOM     36  C   UNL     1     -11.828  -2.677  19.683  0.00  0.00    +0.000 C 
ATOM     37  C   UNL     1     -11.179  -1.786  20.768  0.00  0.00    +0.000 C 
ATOM     38  C   UNL     1     -11.534  -0.554  19.939  0.00  0.00    +0.000 A 
ATOM     39  C   UNL     1     -11.971   0.631  20.506  0.00  0.00    +0.000 A 
ATOM     40  C   UNL     1     -12.369   1.654  19.647  0.00  0.00    +0.000 A 
ATOM     41  C   UNL     1     -12.266   1.496  18.252  0.00  0.00    +0.000 A 
ATOM     42  C   UNL     1     -11.831   0.289  17.687  0.00  0.00    +0.000 A 
ATOM     43  C   UNL     1     -11.505  -0.752  18.540  0.00  0.00    +0.000 A 
ATOM     44  C   UNL     1      -9.884  -2.760  18.141  0.00  0.00    +0.000 C 
ATOM     45  O   UNL     1      -8.811  -2.259  18.456  0.00  0.00    +0.000 OA
ATOM     46  H   UNL     1     -12.933  -2.908  17.130  0.00  0.00    +0.000 HD
ATOM     47  H   UNL     1     -11.674  -3.744  19.888  0.00  0.00    +0.000 HD
ATOM     48  H   UNL     1     -12.928  -2.571  19.720  0.00  0.00    +0.000 HD
ATOM     49  H   UNL     1     -10.372  -2.547  20.818  0.00  0.00    +0.000 HD
ATOM     50  H   UNL     1     -10.230  -1.241  20.973  0.00  0.00    +0.000 HD
ATOM     51  H   UNL     1     -12.063   0.732  21.579  0.00  0.00    +0.000 HD
ATOM     52  H   UNL     1     -12.768   2.573  20.067  0.00  0.00    +0.000 HD
ATOM     53  H   UNL     1     -12.571   2.319  17.611  0.00  0.00    +0.000 HD
ATOM     54  H   UNL     1     -11.808   0.171  16.607  0.00  0.00    +0.000 HD
ENDBRANCH  28  31
ENDBRANCH   2  28
TORSDOF 7
ENDMDL
MODEL 7
REMARK VINA RESULT:    -9.616      5.477      6.213
REMARK INTER + INTRA:         -13.458
REMARK INTER:                 -12.984
REMARK INTRA:                  -0.473
REMARK UNBOUND:                -0.468
REMARK  Name = 
REMARK  7 active torsions:
REMARK  status: ('A' for Active; 'I' for Inactive)
REMARK    1  A    between atoms: C_1  and  C_2
REMARK    2  A    between atoms: C_2  and  C_3
REMARK    3  A    between atoms: C_3  and  C_4
REMARK    4  A    between atoms: C_3  and  C_5
REMARK    5  A    between atoms: C_8  and  N_9
REMARK    6  A    between atoms: C_10  and  C_12
REMARK    7  A    between atoms: C_12  and  N_13
REMARK                            x       y       z     vdW  Elec       q    Type
REMARK                         _______ _______ _______ _____ _____    ______ ____
ROOT
ATOM      1  N   UNL     1     -10.132  -7.639  15.782  0.00  0.00    +0.000 N 
ATOM      2  C   UNL     1     -11.052  -6.992  16.578  0.00  0.00    +0.000 C 
ATOM      3  O   UNL     1     -11.487  -7.403  17.655  0.00  0.00    +0.000 OA
ATOM      4  H   UNL     1     -10.031  -7.305  14.829  0.00  0.00    +0.000 HD
ENDROOT
BRANCH   1   8
ATOM      5  C   UNL     1      -8.812 -11.552  16.560  0.00  0.00    +0.000 A 
ATOM      6  C   UNL     1      -9.245 -11.161  15.285  0.00  0.00    +0.000 A 
ATOM      7  C   UNL     1      -9.639  -9.850  15.033  0.00  0.00    +0.000 A 
ATOM      8  C   UNL     1      -9.669  -8.929  16.069  0.00  0.00    +0.000 A 
ATOM      9  C   UNL     1      -9.243  -9.300  17.351  0.00  0.00    +0.000 A 
ATOM     10  C   UNL     1      -8.805 -10.603  17.589  0.00  0.00    +0.000 A 
ATOM     11  H   UNL     1      -9.304 -11.888  14.478  0.00  0.00    +0.000 HD
ATOM     12  H   UNL     1     -10.000  -9.581  14.047  0.00  0.00    +0.000 HD
ATOM     13  H   UNL     1      -9.232  -8.578  18.170  0.00  0.00    +0.000 HD
ATOM     14  H   UNL     1      -8.464 -10.866  18.591  0.00  0.00    +0.000 HD
BRANCH   5  15
ATOM     15  C   UNL     1      -8.402 -12.994  16.795  0.00  0.00    +0.000 C 
ATOM     16  H   UNL     1      -7.356 -13.113  16.480  0.00  0.00    +0.000 HD
BRANCH  15  17
ATOM     17  C   UNL     1      -8.447 -13.334  18.289  0.00  0.00    +0.000 C 
ATOM     18  H   UNL     1      -8.100 -14.353  18.490  0.00  0.00    +0.000 HD
ATOM     19  H   UNL     1      -9.469 -13.247  18.677  0.00  0.00    +0.000 HD
ATOM     20  H   UNL     1      -7.815 -12.646  18.859  0.00  0.00    +0.000 HD
ENDBRANCH  15  17
BRANCH  15  21
ATOM     21  C   UNL     1      -9.247 -13.988  15.976  0.00  0.00    +0.000 C 
ATOM     22  H   UNL     1      -9.575 -14.805  16.631  0.00  0.00    +0.000 HD
ATOM     23  H   UNL     1     -10.156 -13.509  15.595  0.00  0.00    +0.000 HD
BRANCH  21  24
ATOM     24  C   UNL     1      -8.479 -14.598  14.807  0.00  0.00    +0.000 C 
ATOM     25  H   UNL     1      -8.177 -15.622  15.048  0.00  0.00    +0.000 HD
ATOM     26  H   UNL     1      -7.574 -14.020  14.591  0.00  0.00    +0.000 HD
ATOM     27  H   UNL     1      -9.085 -14.639  13.898  0.00  0.00    +0.000 HD
ENDBRANCH  21  24
ENDBRANCH  15  21
ENDBRANCH   5  15
ENDBRANCH   1   8
BRANCH   2  28
ATOM     28  C   UNL     1     -11.383  -5.586  16.126  0.00  0.00    +0.000 C 
ATOM     29  H   UNL     1     -12.088  -5.214  16.890  0.00  0.00    +0.000 HD
ATOM     30  H   UNL     1     -11.950  -5.640  15.191  0.00  0.00    +0.000 HD
BRANCH  28  31
ATOM     31  N   UNL     1     -10.311  -4.609  15.990  0.00  0.00    +0.000 N 
ATOM     32  C   UNL     1      -9.856  -4.272  14.724  0.00  0.00    +0.000 C 
ATOM     33  O   UNL     1      -9.739  -5.003  13.758  0.00  0.00    +0.000 OA
ATOM     34  N   UNL     1      -9.733  -2.873  14.665  0.00  0.00    +0.000 N 
ATOM     35  C   UNL     1     -10.634  -2.349  15.646  0.00  0.00    +0.000 C 
ATOM     36  C   UNL     1     -12.095  -2.430  15.102  0.00  0.00    +0.000 C 
ATOM     37  C   UNL     1     -13.013  -1.761  16.150  0.00  0.00    +0.000 C 
ATOM     38  C   UNL     1     -12.046  -0.581  16.214  0.00  0.00    +0.000 A 
ATOM     39  C   UNL     1     -12.471   0.732  16.327  0.00  0.00    +0.000 A 
ATOM     40  C   UNL     1     -11.505   1.734  16.268  0.00  0.00    +0.000 A 
ATOM     41  C   UNL     1     -10.141   1.405  16.160  0.00  0.00    +0.000 A 
ATOM     42  C   UNL     1      -9.720   0.073  16.037  0.00  0.00    +0.000 A 
ATOM     43  C   UNL     1     -10.687  -0.918  16.022  0.00  0.00    +0.000 A 
ATOM     44  C   UNL     1     -10.477  -3.431  16.697  0.00  0.00    +0.000 C 
ATOM     45  O   UNL     1     -10.664  -3.364  17.905  0.00  0.00    +0.000 OA
ATOM     46  H   UNL     1      -9.658  -2.469  13.740  0.00  0.00    +0.000 HD
ATOM     47  H   UNL     1     -12.432  -3.445  14.853  0.00  0.00    +0.000 HD
ATOM     48  H   UNL     1     -12.175  -1.896  14.137  0.00  0.00    +0.000 HD
ATOM     49  H   UNL     1     -13.123  -2.769  16.603  0.00  0.00    +0.000 HD
ATOM     50  H   UNL     1     -13.094  -1.616  17.251  0.00  0.00    +0.000 HD
ATOM     51  H   UNL     1     -13.525   0.971  16.390  0.00  0.00    +0.000 HD
ATOM     52  H   UNL     1     -11.819   2.774  16.297  0.00  0.00    +0.000 HD
ATOM     53  H   UNL     1      -9.412   2.212  16.132  0.00  0.00    +0.000 HD
ATOM     54  H   UNL     1      -8.667  -0.154  15.903  0.00  0.00    +0.000 HD
ENDBRANCH  28  31
ENDBRANCH   2  28
TORSDOF 7
ENDMDL
MODEL 8
REMARK VINA RESULT:    -9.605      4.137      6.256
REMARK INTER + INTRA:         -13.442
REMARK INTER:                 -12.883
REMARK INTRA:                  -0.559
REMARK UNBOUND:                -0.468
REMARK  Name = 
REMARK  7 active torsions:
REMARK  status: ('A' for Active; 'I' for Inactive)
REMARK    1  A    between atoms: C_1  and  C_2
REMARK    2  A    between atoms: C_2  and  C_3
REMARK    3  A    between atoms: C_3  and  C_4
REMARK    4  A    between atoms: C_3  and  C_5
REMARK    5  A    between atoms: C_8  and  N_9
REMARK    6  A    between atoms: C_10  and  C_12
REMARK    7  A    between atoms: C_12  and  N_13
REMARK                            x       y       z     vdW  Elec       q    Type
REMARK                         _______ _______ _______ _____ _____    ______ ____
ROOT
ATOM      1  N   UNL     1      -8.922  -6.538  17.943  0.00  0.00    +0.000 N 
ATOM      2  C   UNL     1     -10.044  -5.853  18.352  0.00  0.00    +0.000 C 
ATOM      3  O   UNL     1     -11.091  -6.363  18.757  0.00  0.00    +0.000 OA
ATOM      4  H   UNL     1      -8.223  -6.012  17.428  0.00  0.00    +0.000 HD
ENDROOT
BRANCH   1   8
ATOM      5  C   UNL     1      -8.918 -10.719  17.517  0.00  0.00    +0.000 A 
ATOM      6  C   UNL     1      -9.182  -9.869  16.434  0.00  0.00    +0.000 A 
ATOM      7  C   UNL     1      -9.137  -8.486  16.581  0.00  0.00    +0.000 A 
ATOM      8  C   UNL     1      -8.895  -7.933  17.829  0.00  0.00    +0.000 A 
ATOM      9  C   UNL     1      -8.632  -8.765  18.926  0.00  0.00    +0.000 A 
ATOM     10  C   UNL     1      -8.631 -10.151  18.764  0.00  0.00    +0.000 A 
ATOM     11  H   UNL     1      -9.451 -10.282  15.464  0.00  0.00    +0.000 HD
ATOM     12  H   UNL     1      -9.376  -7.850  15.735  0.00  0.00    +0.000 HD
ATOM     13  H   UNL     1      -8.409  -8.345  19.909  0.00  0.00    +0.000 HD
ATOM     14  H   UNL     1      -8.409 -10.779  19.628  0.00  0.00    +0.000 HD
BRANCH   5  15
ATOM     15  C   UNL     1      -8.988 -12.221  17.316  0.00  0.00    +0.000 C 
ATOM     16  H   UNL     1     -10.041 -12.530  17.372  0.00  0.00    +0.000 HD
BRANCH  15  17
ATOM     17  C   UNL     1      -8.496 -12.604  15.916  0.00  0.00    +0.000 C 
ATOM     18  H   UNL     1      -9.301 -13.007  15.292  0.00  0.00    +0.000 HD
ATOM     19  H   UNL     1      -7.707 -13.363  15.974  0.00  0.00    +0.000 HD
ATOM     20  H   UNL     1      -8.080 -11.731  15.403  0.00  0.00    +0.000 HD
ENDBRANCH  15  17
BRANCH  15  21
ATOM     21  C   UNL     1      -8.221 -12.998  18.403  0.00  0.00    +0.000 C 
ATOM     22  H   UNL     1      -7.220 -13.245  18.029  0.00  0.00    +0.000 HD
ATOM     23  H   UNL     1      -8.077 -12.381  19.297  0.00  0.00    +0.000 HD
BRANCH  21  24
ATOM     24  C   UNL     1      -8.912 -14.299  18.801  0.00  0.00    +0.000 C 
ATOM     25  H   UNL     1      -9.992 -14.217  18.641  0.00  0.00    +0.000 HD
ATOM     26  H   UNL     1      -8.742 -14.522  19.860  0.00  0.00    +0.000 HD
ATOM     27  H   UNL     1      -8.555 -15.147  18.210  0.00  0.00    +0.000 HD
ENDBRANCH  21  24
ENDBRANCH  15  21
ENDBRANCH   5  15
ENDBRANCH   1   8
BRANCH   2  28
ATOM     28  C   UNL     1      -9.853  -4.356  18.459  0.00  0.00    +0.000 C 
ATOM     29  H   UNL     1      -9.306  -4.085  17.538  0.00  0.00    +0.000 HD
ATOM     30  H   UNL     1      -9.171  -4.145  19.290  0.00  0.00    +0.000 HD
BRANCH  28  31
ATOM     31  N   UNL     1     -11.022  -3.492  18.557  0.00  0.00    +0.000 N 
ATOM     32  C   UNL     1     -10.908  -2.263  19.189  0.00  0.00    +0.000 C 
ATOM     33  O   UNL     1     -10.233  -1.990  20.164  0.00  0.00    +0.000 OA
ATOM     34  N   UNL     1     -11.553  -1.303  18.391  0.00  0.00    +0.000 N 
ATOM     35  C   UNL     1     -11.542  -1.817  17.055  0.00  0.00    +0.000 C 
ATOM     36  C   UNL     1     -10.117  -1.638  16.444  0.00  0.00    +0.000 C 
ATOM     37  C   UNL     1     -10.185  -2.112  14.974  0.00  0.00    +0.000 C 
ATOM     38  C   UNL     1     -11.453  -1.282  14.786  0.00  0.00    +0.000 A 
ATOM     39  C   UNL     1     -11.721  -0.574  13.627  0.00  0.00    +0.000 A 
ATOM     40  C   UNL     1     -12.856   0.235  13.608  0.00  0.00    +0.000 A 
ATOM     41  C   UNL     1     -13.724   0.273  14.715  0.00  0.00    +0.000 A 
ATOM     42  C   UNL     1     -13.439  -0.441  15.888  0.00  0.00    +0.000 A 
ATOM     43  C   UNL     1     -12.274  -1.186  15.932  0.00  0.00    +0.000 A 
ATOM     44  C   UNL     1     -11.720  -3.288  17.379  0.00  0.00    +0.000 C 
ATOM     45  O   UNL     1     -12.181  -4.181  16.679  0.00  0.00    +0.000 OA
ATOM     46  H   UNL     1     -11.335  -0.334  18.591  0.00  0.00    +0.000 HD
ATOM     47  H   UNL     1      -9.317  -2.145  16.999  0.00  0.00    +0.000 HD
ATOM     48  H   UNL     1      -9.814  -0.575  16.482  0.00  0.00    +0.000 HD
ATOM     49  H   UNL     1      -9.900  -3.117  15.352  0.00  0.00    +0.000 HD
ATOM     50  H   UNL     1     -10.710  -2.860  14.338  0.00  0.00    +0.000 HD
ATOM     51  H   UNL     1     -11.034  -0.597  12.791  0.00  0.00    +0.000 HD
ATOM     52  H   UNL     1     -13.057   0.843  12.731  0.00  0.00    +0.000 HD
ATOM     53  H   UNL     1     -14.609   0.903  14.661  0.00  0.00    +0.000 HD
ATOM     54  H   UNL     1     -14.097  -0.356  16.748  0.00  0.00    +0.000 HD
ENDBRANCH  28  31
ENDBRANCH   2  28
TORSDOF 7
ENDMDL
MODEL 9
REMARK VINA RESULT:    -9.444      2.094      2.897
REMARK INTER + INTRA:         -13.225
REMARK INTER:                 -12.489
REMARK INTRA:                  -0.736
REMARK UNBOUND:                -0.468
REMARK  Name = 
REMARK  7 active torsions:
REMARK  status: ('A' for Active; 'I' for Inactive)
REMARK    1  A    between atoms: C_1  and  C_2
REMARK    2  A    between atoms: C_2  and  C_3
REMARK    3  A    between atoms: C_3  and  C_4
REMARK    4  A    between atoms: C_3  and  C_5
REMARK    5  A    between atoms: C_8  and  N_9
REMARK    6  A    between atoms: C_10  and  C_12
REMARK    7  A    between atoms: C_12  and  N_13
REMARK                            x       y       z     vdW  Elec       q    Type
REMARK                         _______ _______ _______ _____ _____    ______ ____
ROOT
ATOM      1  N   UNL     1     -10.178  -4.878  17.759  0.00  0.00    +0.000 N 
ATOM      2  C   UNL     1     -10.549  -3.779  17.017  0.00  0.00    +0.000 C 
ATOM      3  O   UNL     1     -10.893  -3.791  15.835  0.00  0.00    +0.000 OA
ATOM      4  H   UNL     1      -9.707  -4.703  18.641  0.00  0.00    +0.000 HD
ENDROOT
BRANCH   1   8
ATOM      5  C   UNL     1      -9.824  -8.740  16.138  0.00  0.00    +0.000 A 
ATOM      6  C   UNL     1     -10.979  -8.330  16.819  0.00  0.00    +0.000 A 
ATOM      7  C   UNL     1     -11.099  -7.035  17.312  0.00  0.00    +0.000 A 
ATOM      8  C   UNL     1     -10.036  -6.151  17.192  0.00  0.00    +0.000 A 
ATOM      9  C   UNL     1      -8.871  -6.541  16.518  0.00  0.00    +0.000 A 
ATOM     10  C   UNL     1      -8.775  -7.827  15.983  0.00  0.00    +0.000 A 
ATOM     11  H   UNL     1     -11.792  -9.032  16.993  0.00  0.00    +0.000 HD
ATOM     12  H   UNL     1     -11.989  -6.752  17.863  0.00  0.00    +0.000 HD
ATOM     13  H   UNL     1      -8.039  -5.848  16.388  0.00  0.00    +0.000 HD
ATOM     14  H   UNL     1      -7.864  -8.104  15.450  0.00  0.00    +0.000 HD
BRANCH   5  15
ATOM     15  C   UNL     1      -9.730 -10.165  15.626  0.00  0.00    +0.000 C 
ATOM     16  H   UNL     1     -10.730 -10.483  15.301  0.00  0.00    +0.000 HD
BRANCH  15  17
ATOM     17  C   UNL     1      -8.828 -10.238  14.389  0.00  0.00    +0.000 C 
ATOM     18  H   UNL     1      -9.382 -10.525  13.490  0.00  0.00    +0.000 HD
ATOM     19  H   UNL     1      -8.026 -10.972  14.535  0.00  0.00    +0.000 HD
ATOM     20  H   UNL     1      -8.359  -9.268  14.198  0.00  0.00    +0.000 HD
ENDBRANCH  15  17
BRANCH  15  21
ATOM     21  C   UNL     1      -9.262 -11.153  16.711  0.00  0.00    +0.000 C 
ATOM     22  H   UNL     1      -8.604 -10.628  17.415  0.00  0.00    +0.000 HD
ATOM     23  H   UNL     1     -10.112 -11.523  17.296  0.00  0.00    +0.000 HD
BRANCH  21  24
ATOM     24  C   UNL     1      -8.494 -12.341  16.141  0.00  0.00    +0.000 C 
ATOM     25  H   UNL     1      -8.163 -12.121  15.121  0.00  0.00    +0.000 HD
ATOM     26  H   UNL     1      -9.125 -13.234  16.108  0.00  0.00    +0.000 HD
ATOM     27  H   UNL     1      -7.603 -12.572  16.733  0.00  0.00    +0.000 HD
ENDBRANCH  21  24
ENDBRANCH  15  21
ENDBRANCH   5  15
ENDBRANCH   1   8
BRANCH   2  28
ATOM     28  C   UNL     1     -10.696  -2.507  17.825  0.00  0.00    +0.000 C 
ATOM     29  H   UNL     1     -11.441  -2.762  18.600  0.00  0.00    +0.000 HD
ATOM     30  H   UNL     1     -11.163  -1.742  17.197  0.00  0.00    +0.000 HD
BRANCH  28  31
ATOM     31  N   UNL     1      -9.529  -1.946  18.492  0.00  0.00    +0.000 N 
ATOM     32  C   UNL     1      -9.358  -0.571  18.519  0.00  0.00    +0.000 C 
ATOM     33  O   UNL     1      -9.634   0.229  17.645  0.00  0.00    +0.000 OA
ATOM     34  N   UNL     1      -8.989  -0.204  19.825  0.00  0.00    +0.000 N 
ATOM     35  C   UNL     1      -9.492  -1.232  20.687  0.00  0.00    +0.000 C 
ATOM     36  C   UNL     1     -11.030  -1.046  20.870  0.00  0.00    +0.000 C 
ATOM     37  C   UNL     1     -11.504  -2.112  21.885  0.00  0.00    +0.000 C 
ATOM     38  C   UNL     1     -10.346  -1.724  22.801  0.00  0.00    +0.000 A 
ATOM     39  C   UNL     1     -10.469  -1.659  24.179  0.00  0.00    +0.000 A 
ATOM     40  C   UNL     1      -9.377  -1.189  24.906  0.00  0.00    +0.000 A 
ATOM     41  C   UNL     1      -8.175  -0.855  24.255  0.00  0.00    +0.000 A 
ATOM     42  C   UNL     1      -8.063  -0.916  22.858  0.00  0.00    +0.000 A 
ATOM     43  C   UNL     1      -9.172  -1.312  22.131  0.00  0.00    +0.000 A 
ATOM     44  C   UNL     1      -9.279  -2.419  19.768  0.00  0.00    +0.000 C 
ATOM     45  O   UNL     1      -9.134  -3.600  20.057  0.00  0.00    +0.000 OA
ATOM     46  H   UNL     1      -9.079   0.777  20.057  0.00  0.00    +0.000 HD
ATOM     47  H   UNL     1     -11.608  -1.087  19.937  0.00  0.00    +0.000 HD
ATOM     48  H   UNL     1     -11.252  -0.035  21.257  0.00  0.00    +0.000 HD
ATOM     49  H   UNL     1     -11.684  -2.772  21.010  0.00  0.00    +0.000 HD
ATOM     50  H   UNL     1     -11.270  -3.151  22.208  0.00  0.00    +0.000 HD
ATOM     51  H   UNL     1     -11.405  -1.900  24.665  0.00  0.00    +0.000 HD
ATOM     52  H   UNL     1      -9.468  -1.075  25.983  0.00  0.00    +0.000 HD
ATOM     53  H   UNL     1      -7.337  -0.506  24.854  0.00  0.00    +0.000 HD
ATOM     54  H   UNL     1      -7.142  -0.605  22.373  0.00  0.00    +0.000 HD
ENDBRANCH  28  31
ENDBRANCH   2  28
TORSDOF 7
ENDMDL
