REMARK  Name = 
REMARK  5 active torsions:
REMARK  status: ('A' for Active; 'I' for Inactive)
REMARK    1  A    between atoms: N_1  and  C_2
REMARK    2  A    between atoms: N_4  and  C_5
REMARK    3  A    between atoms: C_5  and  C_6
REMARK    4  A    between atoms: C_6  and  C_7
REMARK    5  A    between atoms: C_15  and  N_16
REMARK                            x       y       z     vdW  Elec       q    Type
REMARK                         _______ _______ _______ _____ _____    ______ ____
ROOT
ATOM      1  C   UNL     1      -0.276  -0.111  -0.756  0.00  0.00    +0.000 A 
ATOM      2  C   UNL     1       0.481  -1.264  -0.501  0.00  0.00    +0.000 A 
ATOM      3  N   UNL     1      -0.150  -2.514  -0.508  0.00  0.00    +0.000 N 
ATOM      4  N   UNL     1       1.804  -1.220  -0.259  0.00  0.00    +0.000 NA
ATOM      5  C   UNL     1       2.380  -0.028  -0.215  0.00  0.00    +0.000 A 
ATOM      6  N   UNL     1       1.759   1.158  -0.343  0.00  0.00    +0.000 NA
ATOM      7  C   UNL     1       0.425   1.102  -0.580  0.00  0.00    +0.000 A 
ATOM      8  H   UNL     1      -0.446  -2.748  -1.452  0.00  0.00    +0.000 HD
ATOM      9  H   UNL     1       3.456  -0.010  -0.078  0.00  0.00    +0.000 HD
ENDROOT
BRANCH   7  10
ATOM     10  N   UNL     1      -0.263   2.352  -0.652  0.00  0.00    +0.000 N 
ATOM     11  C   UNL     1       0.395   3.505  -1.102  0.00  0.00    +0.000 A 
ATOM     12  C   UNL     1      -0.283   4.584  -1.674  0.00  0.00    +0.000 A 
ATOM     13  C   UNL     1       0.453   5.558  -2.340  0.00  0.00    +0.000 A 
ATOM     14  C   UNL     1       1.843   5.489  -2.365  0.00  0.00    +0.000 A 
ATOM     15  C   UNL     1       2.474   4.473  -1.664  0.00  0.00    +0.000 A 
ATOM     16  N   UNL     1       1.735   3.541  -1.061  0.00  0.00    +0.000 N 
ATOM     17  H   UNL     1      -1.158   2.227  -1.104  0.00  0.00    +0.000 HD
ATOM     18  H   UNL     1      -1.370   4.629  -1.675  0.00  0.00    +0.000 HD
ATOM     19  H   UNL     1      -0.059   6.356  -2.880  0.00  0.00    +0.000 HD
ATOM     20  H   UNL     1       2.426   6.208  -2.933  0.00  0.00    +0.000 HD
ATOM     21  H   UNL     1       3.547   4.347  -1.615  0.00  0.00    +0.000 HD
ATOM     22  H   UNL     1       2.173   2.754  -0.570  0.00  0.00    +0.000 HD
ENDBRANCH   7  10
BRANCH   1  23
ATOM     23  N   UNL     1      -1.658  -0.163  -0.989  0.00  0.00    +0.000 N 
ATOM     24  H   UNL     1      -2.165  -0.529  -0.176  0.00  0.00    +0.000 HD
ATOM     25  H   UNL     1      -2.155   0.595  -1.414  0.00  0.00    +0.000 HD
ENDBRANCH   1  23
BRANCH   3  26
ATOM     26  C   UNL     1       0.517  -3.609   0.200  0.00  0.00    +0.000 C 
ATOM     27  H   UNL     1       1.564  -3.726  -0.124  0.00  0.00    +0.000 HD
ATOM     28  H   UNL     1       0.018  -4.548  -0.073  0.00  0.00    +0.000 HD
BRANCH  26  29
ATOM     29  C   UNL     1       0.463  -3.447   1.731  0.00  0.00    +0.000 C 
ATOM     30  H   UNL     1       1.045  -2.573   2.048  0.00  0.00    +0.000 HD
ATOM     31  H   UNL     1       0.956  -4.315   2.188  0.00  0.00    +0.000 HD
BRANCH  29  32
ATOM     32  C   UNL     1      -0.942  -3.361   2.268  0.00  0.00    +0.000 A 
ATOM     33  C   UNL     1      -1.763  -4.396   2.670  0.00  0.00    +0.000 A 
ATOM     34  C   UNL     1      -3.043  -3.936   3.105  0.00  0.00    +0.000 A 
ATOM     35  C   UNL     1      -3.154  -2.565   3.031  0.00  0.00    +0.000 A 
ATOM     36  S   UNL     1      -1.711  -1.839   2.473  0.00  0.00    +0.000 S 
ATOM     37  H   UNL     1      -1.471  -5.437   2.649  0.00  0.00    +0.000 HD
ATOM     38  H   UNL     1      -3.842  -4.581   3.451  0.00  0.00    +0.000 HD
ATOM     39  H   UNL     1      -4.008  -1.958   3.289  0.00  0.00    +0.000 HD
ENDBRANCH  29  32
ENDBRANCH  26  29
ENDBRANCH   3  26
TORSDOF 5
