MODEL 1
REMARK VINA RESULT:    -8.270      0.000      0.000
REMARK INTER + INTRA:         -13.519
REMARK INTER:                 -11.896
REMARK INTRA:                  -1.622
REMARK UNBOUND:                -1.622
REMARK  Name = 
REMARK  10 active torsions:
REMARK  status: ('A' for Active; 'I' for Inactive)
REMARK    1  A    between atoms: C_1  and  O_2
REMARK    2  A    between atoms: O_2  and  C_3
REMARK    3  A    between atoms: C_3  and  C_4
REMARK    4  A    between atoms: C_4  and  N_5
REMARK    5  A    between atoms: C_11  and  C_12
REMARK    6  A    between atoms: C_13  and  C_14
REMARK    7  A    between atoms: C_16  and  C_17
REMARK    8  A    between atoms: C_19  and  O_20
REMARK    9  A    between atoms: C_22  and  C_23
REMARK   10  A    between atoms: C_26  and  C_27
REMARK                            x       y       z     vdW  Elec       q    Type
REMARK                         _______ _______ _______ _____ _____    ______ ____
ROOT
ATOM      1  N   UNL     1     -10.321  -3.189  19.532  0.00  0.00    +0.000 N 
ATOM      2  C   UNL     1      -9.014  -3.006  19.990  0.00  0.00    +0.000 C 
ATOM      3  O   UNL     1      -8.536  -2.047  20.571  0.00  0.00    +0.000 OA
ATOM      4  C   UNL     1      -8.355  -4.191  19.591  0.00  0.00    +0.000 A 
ATOM      5  N   UNL     1      -7.141  -4.746  19.667  0.00  0.00    +0.000 N 
ATOM      6  N   UNL     1      -7.115  -5.967  19.086  0.00  0.00    +0.000 NA
ATOM      7  C   UNL     1      -8.348  -6.152  18.549  0.00  0.00    +0.000 A 
ATOM      8  C   UNL     1      -9.155  -5.039  18.883  0.00  0.00    +0.000 A 
ATOM      9  C   UNL     1     -10.512  -4.451  18.758  0.00  0.00    +0.000 C 
ATOM     10  H   UNL     1      -6.293  -4.377  20.084  0.00  0.00    +0.000 HD
ATOM     11  H   UNL     1     -11.278  -5.040  19.267  0.00  0.00    +0.000 HD
ENDROOT
BRANCH   9  12
ATOM     12  C   UNL     1     -10.791  -4.224  17.289  0.00  0.00    +0.000 A 
ATOM     13  C   UNL     1     -11.565  -5.161  16.583  0.00  0.00    +0.000 A 
ATOM     14  C   UNL     1     -11.860  -4.978  15.231  0.00  0.00    +0.000 A 
ATOM     15  C   UNL     1     -11.384  -3.854  14.550  0.00  0.00    +0.000 A 
ATOM     16  C   UNL     1     -10.616  -2.913  15.242  0.00  0.00    +0.000 A 
ATOM     17  C   UNL     1     -10.330  -3.092  16.597  0.00  0.00    +0.000 A 
ATOM     18  H   UNL     1     -11.945  -6.046  17.090  0.00  0.00    +0.000 HD
ATOM     19  H   UNL     1     -12.459  -5.723  14.712  0.00  0.00    +0.000 HD
ATOM     20  H   UNL     1     -10.230  -2.035  14.731  0.00  0.00    +0.000 HD
ATOM     21  H   UNL     1      -9.729  -2.341  17.106  0.00  0.00    +0.000 HD
BRANCH  15  22
ATOM     22  C   UNL     1     -11.673  -3.651  13.092  0.00  0.00    +0.000 C 
ATOM     23  H   UNL     1     -12.663  -4.024  12.824  0.00  0.00    +0.000 HD
ATOM     24  H   UNL     1     -10.931  -4.180  12.485  0.00  0.00    +0.000 HD
ATOM     25  H   UNL     1     -11.639  -2.583  12.848  0.00  0.00    +0.000 HD
ENDBRANCH  15  22
ENDBRANCH   9  12
BRANCH   7  26
ATOM     26  C   UNL     1      -8.691  -7.351  17.755  0.00  0.00    +0.000 A 
ATOM     27  C   UNL     1      -9.028  -8.598  18.344  0.00  0.00    +0.000 A 
ATOM     28  C   UNL     1      -9.263  -9.723  17.516  0.00  0.00    +0.000 A 
ATOM     29  C   UNL     1      -9.194  -9.647  16.125  0.00  0.00    +0.000 A 
ATOM     30  C   UNL     1      -8.918  -8.415  15.542  0.00  0.00    +0.000 A 
ATOM     31  C   UNL     1      -8.683  -7.288  16.343  0.00  0.00    +0.000 A 
ATOM     32  H   UNL     1      -9.503 -10.678  17.984  0.00  0.00    +0.000 HD
ATOM     33  H   UNL     1      -8.884  -8.340  14.459  0.00  0.00    +0.000 HD
BRANCH  27  34
ATOM     34  C   UNL     1      -9.161  -8.880  19.821  0.00  0.00    +0.000 C 
ATOM     35  H   UNL     1      -8.940  -9.897  20.133  0.00  0.00    +0.000 HD
ATOM     36  H   UNL     1     -10.181  -8.660  20.150  0.00  0.00    +0.000 HD
ATOM     37  H   UNL     1      -8.469  -8.233  20.374  0.00  0.00    +0.000 HD
ENDBRANCH  27  34
BRANCH  29  38
ATOM     38  C   UNL     1      -9.445 -10.855  15.273  0.00  0.00    +0.000 C 
ATOM     39  H   UNL     1      -9.334 -11.781  15.846  0.00  0.00    +0.000 HD
ATOM     40  H   UNL     1      -8.730 -10.891  14.446  0.00  0.00    +0.000 HD
ATOM     41  H   UNL     1     -10.463 -10.825  14.870  0.00  0.00    +0.000 HD
ENDBRANCH  29  38
BRANCH  31  42
ATOM     42  O   UNL     1      -8.473  -6.096  15.694  0.00  0.00    +0.000 OA
ATOM     43  H   UNL     1      -9.323  -5.782  15.343  0.00  0.00    +0.000 HD
ENDBRANCH  31  42
ENDBRANCH   7  26
BRANCH   1  44
ATOM     44  C   UNL     1     -11.348  -2.163  19.670  0.00  0.00    +0.000 C 
ATOM     45  H   UNL     1     -10.875  -1.192  19.479  0.00  0.00    +0.000 HD
ATOM     46  H   UNL     1     -12.080  -2.332  18.874  0.00  0.00    +0.000 HD
BRANCH  44  47
ATOM     47  C   UNL     1     -12.068  -2.123  21.022  0.00  0.00    +0.000 C 
ATOM     48  H   UNL     1     -13.106  -1.806  20.864  0.00  0.00    +0.000 HD
ATOM     49  H   UNL     1     -12.081  -3.112  21.488  0.00  0.00    +0.000 HD
BRANCH  47  50
ATOM     50  O   UNL     1     -11.429  -1.195  21.902  0.00  0.00    +0.000 OA
BRANCH  50  51
ATOM     51  C   UNL     1     -11.093  -1.800  23.144  0.00  0.00    +0.000 C 
ATOM     52  H   UNL     1     -11.243  -2.880  23.057  0.00  0.00    +0.000 HD
ATOM     53  H   UNL     1     -11.742  -1.422  23.940  0.00  0.00    +0.000 HD
ATOM     54  H   UNL     1     -10.045  -1.610  23.392  0.00  0.00    +0.000 HD
ENDBRANCH  50  51
ENDBRANCH  47  50
ENDBRANCH  44  47
ENDBRANCH   1  44
TORSDOF 10
ENDMDL
MODEL 2
REMARK VINA RESULT:    -7.486      1.958      5.311
REMARK INTER + INTRA:         -12.390
REMARK INTER:                 -10.258
REMARK INTRA:                  -2.132
REMARK UNBOUND:                -1.622
REMARK  Name = 
REMARK  10 active torsions:
REMARK  status: ('A' for Active; 'I' for Inactive)
REMARK    1  A    between atoms: C_1  and  O_2
REMARK    2  A    between atoms: O_2  and  C_3
REMARK    3  A    between atoms: C_3  and  C_4
REMARK    4  A    between atoms: C_4  and  N_5
REMARK    5  A    between atoms: C_11  and  C_12
REMARK    6  A    between atoms: C_13  and  C_14
REMARK    7  A    between atoms: C_16  and  C_17
REMARK    8  A    between atoms: C_19  and  O_20
REMARK    9  A    between atoms: C_22  and  C_23
REMARK   10  A    between atoms: C_26  and  C_27
REMARK                            x       y       z     vdW  Elec       q    Type
REMARK                         _______ _______ _______ _____ _____    ______ ____
ROOT
ATOM      1  N   UNL     1      -7.428  -5.062  19.798  0.00  0.00    +0.000 N 
ATOM      2  C   UNL     1      -8.178  -4.324  20.717  0.00  0.00    +0.000 C 
ATOM      3  O   UNL     1      -8.025  -4.224  21.922  0.00  0.00    +0.000 OA
ATOM      4  C   UNL     1      -9.191  -3.739  19.922  0.00  0.00    +0.000 A 
ATOM      5  N   UNL     1     -10.243  -2.927  20.065  0.00  0.00    +0.000 N 
ATOM      6  N   UNL     1     -10.858  -2.697  18.883  0.00  0.00    +0.000 NA
ATOM      7  C   UNL     1     -10.210  -3.465  17.970  0.00  0.00    +0.000 A 
ATOM      8  C   UNL     1      -9.132  -4.117  18.613  0.00  0.00    +0.000 A 
ATOM      9  C   UNL     1      -7.986  -5.037  18.414  0.00  0.00    +0.000 C 
ATOM     10  H   UNL     1     -10.607  -2.492  20.907  0.00  0.00    +0.000 HD
ATOM     11  H   UNL     1      -7.219  -4.623  17.755  0.00  0.00    +0.000 HD
ENDROOT
BRANCH   9  12
ATOM     12  C   UNL     1      -8.530  -6.371  17.956  0.00  0.00    +0.000 A 
ATOM     13  C   UNL     1      -8.379  -6.751  16.612  0.00  0.00    +0.000 A 
ATOM     14  C   UNL     1      -8.852  -7.983  16.155  0.00  0.00    +0.000 A 
ATOM     15  C   UNL     1      -9.492  -8.864  17.032  0.00  0.00    +0.000 A 
ATOM     16  C   UNL     1      -9.645  -8.498  18.372  0.00  0.00    +0.000 A 
ATOM     17  C   UNL     1      -9.163  -7.271  18.830  0.00  0.00    +0.000 A 
ATOM     18  H   UNL     1      -7.887  -6.082  15.909  0.00  0.00    +0.000 HD
ATOM     19  H   UNL     1      -8.722  -8.246  15.108  0.00  0.00    +0.000 HD
ATOM     20  H   UNL     1     -10.145  -9.165  19.070  0.00  0.00    +0.000 HD
ATOM     21  H   UNL     1      -9.299  -7.017  19.880  0.00  0.00    +0.000 HD
BRANCH  15  22
ATOM     22  C   UNL     1     -10.025 -10.182  16.554  0.00  0.00    +0.000 C 
ATOM     23  H   UNL     1      -9.462 -11.018  16.973  0.00  0.00    +0.000 HD
ATOM     24  H   UNL     1      -9.963 -10.239  15.463  0.00  0.00    +0.000 HD
ATOM     25  H   UNL     1     -11.072 -10.296  16.859  0.00  0.00    +0.000 HD
ENDBRANCH  15  22
ENDBRANCH   9  12
BRANCH   7  26
ATOM     26  C   UNL     1     -10.644  -3.546  16.558  0.00  0.00    +0.000 A 
ATOM     27  C   UNL     1     -11.396  -4.632  16.042  0.00  0.00    +0.000 A 
ATOM     28  C   UNL     1     -11.702  -4.678  14.659  0.00  0.00    +0.000 A 
ATOM     29  C   UNL     1     -11.302  -3.674  13.778  0.00  0.00    +0.000 A 
ATOM     30  C   UNL     1     -10.612  -2.580  14.289  0.00  0.00    +0.000 A 
ATOM     31  C   UNL     1     -10.300  -2.514  15.655  0.00  0.00    +0.000 A 
ATOM     32  H   UNL     1     -12.265  -5.528  14.274  0.00  0.00    +0.000 HD
ATOM     33  H   UNL     1     -10.316  -1.781  13.616  0.00  0.00    +0.000 HD
BRANCH  27  34
ATOM     34  C   UNL     1     -11.925  -5.806  16.829  0.00  0.00    +0.000 C 
ATOM     35  H   UNL     1     -12.901  -6.179  16.531  0.00  0.00    +0.000 HD
ATOM     36  H   UNL     1     -11.994  -5.540  17.889  0.00  0.00    +0.000 HD
ATOM     37  H   UNL     1     -11.230  -6.649  16.727  0.00  0.00    +0.000 HD
ENDBRANCH  27  34
BRANCH  29  38
ATOM     38  C   UNL     1     -11.638  -3.749  12.318  0.00  0.00    +0.000 C 
ATOM     39  H   UNL     1     -12.682  -4.037  12.161  0.00  0.00    +0.000 HD
ATOM     40  H   UNL     1     -11.011  -4.497  11.823  0.00  0.00    +0.000 HD
ATOM     41  H   UNL     1     -11.480  -2.774  11.846  0.00  0.00    +0.000 HD
ENDBRANCH  29  38
BRANCH  31  42
ATOM     42  O   UNL     1      -9.666  -1.377  16.094  0.00  0.00    +0.000 OA
ATOM     43  H   UNL     1     -10.337  -0.762  16.435  0.00  0.00    +0.000 HD
ENDBRANCH  31  42
ENDBRANCH   7  26
BRANCH   1  44
ATOM     44  C   UNL     1      -6.302  -5.896  20.201  0.00  0.00    +0.000 C 
ATOM     45  H   UNL     1      -6.148  -5.750  21.277  0.00  0.00    +0.000 HD
ATOM     46  H   UNL     1      -6.606  -6.938  20.053  0.00  0.00    +0.000 HD
BRANCH  44  47
ATOM     47  C   UNL     1      -4.987  -5.641  19.457  0.00  0.00    +0.000 C 
ATOM     48  H   UNL     1      -4.599  -6.595  19.080  0.00  0.00    +0.000 HD
ATOM     49  H   UNL     1      -5.144  -4.976  18.603  0.00  0.00    +0.000 HD
BRANCH  47  50
ATOM     50  O   UNL     1      -4.020  -5.061  20.335  0.00  0.00    +0.000 OA
BRANCH  50  51
ATOM     51  C   UNL     1      -4.539  -3.916  20.999  0.00  0.00    +0.000 C 
ATOM     52  H   UNL     1      -4.770  -4.189  22.033  0.00  0.00    +0.000 HD
ATOM     53  H   UNL     1      -5.460  -3.578  20.515  0.00  0.00    +0.000 HD
ATOM     54  H   UNL     1      -3.800  -3.109  21.006  0.00  0.00    +0.000 HD
ENDBRANCH  50  51
ENDBRANCH  47  50
ENDBRANCH  44  47
ENDBRANCH   1  44
TORSDOF 10
ENDMDL
MODEL 3
REMARK VINA RESULT:    -7.307      2.000      5.610
REMARK INTER + INTRA:         -12.133
REMARK INTER:                 -10.422
REMARK INTRA:                  -1.712
REMARK UNBOUND:                -1.622
REMARK  Name = 
REMARK  10 active torsions:
REMARK  status: ('A' for Active; 'I' for Inactive)
REMARK    1  A    between atoms: C_1  and  O_2
REMARK    2  A    between atoms: O_2  and  C_3
REMARK    3  A    between atoms: C_3  and  C_4
REMARK    4  A    between atoms: C_4  and  N_5
REMARK    5  A    between atoms: C_11  and  C_12
REMARK    6  A    between atoms: C_13  and  C_14
REMARK    7  A    between atoms: C_16  and  C_17
REMARK    8  A    between atoms: C_19  and  O_20
REMARK    9  A    between atoms: C_22  and  C_23
REMARK   10  A    between atoms: C_26  and  C_27
REMARK                            x       y       z     vdW  Elec       q    Type
REMARK                         _______ _______ _______ _____ _____    ______ ____
ROOT
ATOM      1  N   UNL     1      -7.424  -3.851  21.059  0.00  0.00    +0.000 N 
ATOM      2  C   UNL     1      -8.339  -3.168  21.864  0.00  0.00    +0.000 C 
ATOM      3  O   UNL     1      -8.284  -2.943  23.060  0.00  0.00    +0.000 OA
ATOM      4  C   UNL     1      -9.374  -2.821  20.965  0.00  0.00    +0.000 A 
ATOM      5  N   UNL     1     -10.546  -2.178  20.975  0.00  0.00    +0.000 N 
ATOM      6  N   UNL     1     -11.109  -2.150  19.746  0.00  0.00    +0.000 NA
ATOM      7  C   UNL     1     -10.291  -2.879  18.944  0.00  0.00    +0.000 A 
ATOM      8  C   UNL     1      -9.170  -3.293  19.702  0.00  0.00    +0.000 A 
ATOM      9  C   UNL     1      -7.885  -4.032  19.651  0.00  0.00    +0.000 C 
ATOM     10  H   UNL     1     -11.029  -1.738  21.752  0.00  0.00    +0.000 HD
ATOM     11  H   UNL     1      -7.149  -3.558  18.997  0.00  0.00    +0.000 HD
ENDROOT
BRANCH   9  12
ATOM     12  C   UNL     1      -8.184  -5.470  19.292  0.00  0.00    +0.000 A 
ATOM     13  C   UNL     1      -8.142  -5.866  17.944  0.00  0.00    +0.000 A 
ATOM     14  C   UNL     1      -8.395  -7.189  17.574  0.00  0.00    +0.000 A 
ATOM     15  C   UNL     1      -8.700  -8.147  18.545  0.00  0.00    +0.000 A 
ATOM     16  C   UNL     1      -8.743  -7.766  19.889  0.00  0.00    +0.000 A 
ATOM     17  C   UNL     1      -8.480  -6.446  20.259  0.00  0.00    +0.000 A 
ATOM     18  H   UNL     1      -7.909  -5.138  17.170  0.00  0.00    +0.000 HD
ATOM     19  H   UNL     1      -8.357  -7.462  16.523  0.00  0.00    +0.000 HD
ATOM     20  H   UNL     1      -8.985  -8.493  20.659  0.00  0.00    +0.000 HD
ATOM     21  H   UNL     1      -8.521  -6.182  21.314  0.00  0.00    +0.000 HD
BRANCH  15  22
ATOM     22  C   UNL     1      -8.996  -9.567  18.164  0.00  0.00    +0.000 C 
ATOM     23  H   UNL     1      -8.226  -9.975  17.506  0.00  0.00    +0.000 HD
ATOM     24  H   UNL     1      -9.957  -9.625  17.644  0.00  0.00    +0.000 HD
ATOM     25  H   UNL     1      -9.037 -10.196  19.061  0.00  0.00    +0.000 HD
ENDBRANCH  15  22
ENDBRANCH   9  12
BRANCH   7  26
ATOM     26  C   UNL     1     -10.610  -3.146  17.525  0.00  0.00    +0.000 A 
ATOM     27  C   UNL     1     -10.285  -2.247  16.477  0.00  0.00    +0.000 A 
ATOM     28  C   UNL     1     -10.700  -2.535  15.153  0.00  0.00    +0.000 A 
ATOM     29  C   UNL     1     -11.408  -3.693  14.833  0.00  0.00    +0.000 A 
ATOM     30  C   UNL     1     -11.681  -4.604  15.849  0.00  0.00    +0.000 A 
ATOM     31  C   UNL     1     -11.279  -4.339  17.166  0.00  0.00    +0.000 A 
ATOM     32  H   UNL     1     -10.458  -1.826  14.361  0.00  0.00    +0.000 HD
ATOM     33  H   UNL     1     -12.212  -5.520  15.607  0.00  0.00    +0.000 HD
BRANCH  27  34
ATOM     34  C   UNL     1      -9.523  -0.952  16.616  0.00  0.00    +0.000 C 
ATOM     35  H   UNL     1      -8.983  -0.815  17.548  0.00  0.00    +0.000 HD
ATOM     36  H   UNL     1     -10.209  -0.105  16.516  0.00  0.00    +0.000 HD
ATOM     37  H   UNL     1      -8.774  -0.889  15.816  0.00  0.00    +0.000 HD
ENDBRANCH  27  34
BRANCH  29  38
ATOM     38  C   UNL     1     -11.835  -3.972  13.424  0.00  0.00    +0.000 C 
ATOM     39  H   UNL     1     -12.534  -4.813  13.375  0.00  0.00    +0.000 HD
ATOM     40  H   UNL     1     -10.967  -4.229  12.809  0.00  0.00    +0.000 HD
ATOM     41  H   UNL     1     -12.331  -3.093  13.000  0.00  0.00    +0.000 HD
ENDBRANCH  29  38
BRANCH  31  42
ATOM     42  O   UNL     1     -11.535  -5.311  18.102  0.00  0.00    +0.000 OA
ATOM     43  H   UNL     1     -11.082  -5.071  18.927  0.00  0.00    +0.000 HD
ENDBRANCH  31  42
ENDBRANCH   7  26
BRANCH   1  44
ATOM     44  C   UNL     1      -6.212  -4.458  21.597  0.00  0.00    +0.000 C 
ATOM     45  H   UNL     1      -6.286  -4.433  22.691  0.00  0.00    +0.000 HD
ATOM     46  H   UNL     1      -6.218  -5.510  21.293  0.00  0.00    +0.000 HD
BRANCH  44  47
ATOM     47  C   UNL     1      -4.894  -3.810  21.158  0.00  0.00    +0.000 C 
ATOM     48  H   UNL     1      -5.065  -2.742  20.979  0.00  0.00    +0.000 HD
ATOM     49  H   UNL     1      -4.133  -3.907  21.937  0.00  0.00    +0.000 HD
BRANCH  47  50
ATOM     50  O   UNL     1      -4.418  -4.414  19.954  0.00  0.00    +0.000 OA
BRANCH  50  51
ATOM     51  C   UNL     1      -4.588  -5.825  19.974  0.00  0.00    +0.000 C 
ATOM     52  H   UNL     1      -5.548  -6.053  20.444  0.00  0.00    +0.000 HD
ATOM     53  H   UNL     1      -3.793  -6.297  20.561  0.00  0.00    +0.000 HD
ATOM     54  H   UNL     1      -4.591  -6.226  18.956  0.00  0.00    +0.000 HD
ENDBRANCH  50  51
ENDBRANCH  47  50
ENDBRANCH  44  47
ENDBRANCH   1  44
TORSDOF 10
ENDMDL
MODEL 4
REMARK VINA RESULT:    -7.087      2.477      7.297
REMARK INTER + INTRA:         -11.817
REMARK INTER:                 -11.105
REMARK INTRA:                  -0.712
REMARK UNBOUND:                -1.622
REMARK  Name = 
REMARK  10 active torsions:
REMARK  status: ('A' for Active; 'I' for Inactive)
REMARK    1  A    between atoms: C_1  and  O_2
REMARK    2  A    between atoms: O_2  and  C_3
REMARK    3  A    between atoms: C_3  and  C_4
REMARK    4  A    between atoms: C_4  and  N_5
REMARK    5  A    between atoms: C_11  and  C_12
REMARK    6  A    between atoms: C_13  and  C_14
REMARK    7  A    between atoms: C_16  and  C_17
REMARK    8  A    between atoms: C_19  and  O_20
REMARK    9  A    between atoms: C_22  and  C_23
REMARK   10  A    between atoms: C_26  and  C_27
REMARK                            x       y       z     vdW  Elec       q    Type
REMARK                         _______ _______ _______ _____ _____    ______ ____
ROOT
ATOM      1  N   UNL     1     -10.065  -7.767  17.974  0.00  0.00    +0.000 N 
ATOM      2  C   UNL     1     -10.430  -7.693  16.627  0.00  0.00    +0.000 C 
ATOM      3  O   UNL     1     -10.451  -8.580  15.792  0.00  0.00    +0.000 OA
ATOM      4  C   UNL     1     -10.744  -6.326  16.445  0.00  0.00    +0.000 A 
ATOM      5  N   UNL     1     -11.163  -5.507  15.475  0.00  0.00    +0.000 N 
ATOM      6  N   UNL     1     -11.306  -4.239  15.922  0.00  0.00    +0.000 NA
ATOM      7  C   UNL     1     -10.879  -4.247  17.211  0.00  0.00    +0.000 A 
ATOM      8  C   UNL     1     -10.539  -5.574  17.564  0.00  0.00    +0.000 A 
ATOM      9  C   UNL     1     -10.054  -6.444  18.664  0.00  0.00    +0.000 C 
ATOM     10  H   UNL     1     -11.372  -5.717  14.504  0.00  0.00    +0.000 HD
ATOM     11  H   UNL     1     -10.753  -6.500  19.500  0.00  0.00    +0.000 HD
ENDROOT
BRANCH   9  12
ATOM     12  C   UNL     1      -8.669  -5.976  19.054  0.00  0.00    +0.000 A 
ATOM     13  C   UNL     1      -8.511  -5.179  20.201  0.00  0.00    +0.000 A 
ATOM     14  C   UNL     1      -7.247  -4.744  20.604  0.00  0.00    +0.000 A 
ATOM     15  C   UNL     1      -6.111  -5.091  19.868  0.00  0.00    +0.000 A 
ATOM     16  C   UNL     1      -6.256  -5.886  18.727  0.00  0.00    +0.000 A 
ATOM     17  C   UNL     1      -7.519  -6.330  18.330  0.00  0.00    +0.000 A 
ATOM     18  H   UNL     1      -9.380  -4.893  20.789  0.00  0.00    +0.000 HD
ATOM     19  H   UNL     1      -7.158  -4.126  21.494  0.00  0.00    +0.000 HD
ATOM     20  H   UNL     1      -5.387  -6.163  18.136  0.00  0.00    +0.000 HD
ATOM     21  H   UNL     1      -7.597  -6.947  17.437  0.00  0.00    +0.000 HD
BRANCH  15  22
ATOM     22  C   UNL     1      -4.748  -4.615  20.274  0.00  0.00    +0.000 C 
ATOM     23  H   UNL     1      -4.104  -5.445  20.567  0.00  0.00    +0.000 HD
ATOM     24  H   UNL     1      -4.828  -3.927  21.122  0.00  0.00    +0.000 HD
ATOM     25  H   UNL     1      -4.266  -4.096  19.437  0.00  0.00    +0.000 HD
ENDBRANCH  15  22
ENDBRANCH   9  12
BRANCH   7  26
ATOM     26  C   UNL     1     -10.810  -3.015  18.026  0.00  0.00    +0.000 A 
ATOM     27  C   UNL     1     -10.078  -1.866  17.630  0.00  0.00    +0.000 A 
ATOM     28  C   UNL     1      -9.991  -0.755  18.505  0.00  0.00    +0.000 A 
ATOM     29  C   UNL     1     -10.621  -0.739  19.749  0.00  0.00    +0.000 A 
ATOM     30  C   UNL     1     -11.384  -1.842  20.118  0.00  0.00    +0.000 A 
ATOM     31  C   UNL     1     -11.485  -2.952  19.267  0.00  0.00    +0.000 A 
ATOM     32  H   UNL     1      -9.410   0.114  18.194  0.00  0.00    +0.000 HD
ATOM     33  H   UNL     1     -11.898  -1.832  21.075  0.00  0.00    +0.000 HD
BRANCH  27  34
ATOM     34  C   UNL     1      -9.337  -1.685  16.328  0.00  0.00    +0.000 C 
ATOM     35  H   UNL     1      -8.631  -2.468  16.067  0.00  0.00    +0.000 HD
ATOM     36  H   UNL     1      -8.777  -0.744  16.348  0.00  0.00    +0.000 HD
ATOM     37  H   UNL     1     -10.062  -1.640  15.505  0.00  0.00    +0.000 HD
ENDBRANCH  27  34
BRANCH  29  38
ATOM     38  C   UNL     1     -10.510   0.450  20.655  0.00  0.00    +0.000 C 
ATOM     39  H   UNL     1     -10.149   0.165  21.649  0.00  0.00    +0.000 HD
ATOM     40  H   UNL     1     -11.490   0.921  20.783  0.00  0.00    +0.000 HD
ATOM     41  H   UNL     1      -9.811   1.179  20.235  0.00  0.00    +0.000 HD
ENDBRANCH  29  38
BRANCH  31  42
ATOM     42  O   UNL     1     -12.301  -3.978  19.676  0.00  0.00    +0.000 OA
ATOM     43  H   UNL     1     -13.115  -3.954  19.146  0.00  0.00    +0.000 HD
ENDBRANCH  31  42
ENDBRANCH   7  26
BRANCH   1  44
ATOM     44  C   UNL     1      -9.593  -9.003  18.587  0.00  0.00    +0.000 C 
ATOM     45  H   UNL     1      -8.943  -8.729  19.427  0.00  0.00    +0.000 HD
ATOM     46  H   UNL     1     -10.470  -9.509  19.004  0.00  0.00    +0.000 HD
BRANCH  44  47
ATOM     47  C   UNL     1      -8.847  -9.964  17.656  0.00  0.00    +0.000 C 
ATOM     48  H   UNL     1      -8.842  -9.546  16.642  0.00  0.00    +0.000 HD
ATOM     49  H   UNL     1      -7.810 -10.092  17.976  0.00  0.00    +0.000 HD
BRANCH  47  50
ATOM     50  O   UNL     1      -9.494 -11.238  17.630  0.00  0.00    +0.000 OA
BRANCH  50  51
ATOM     51  C   UNL     1      -8.607 -12.282  18.006  0.00  0.00    +0.000 C 
ATOM     52  H   UNL     1      -8.516 -12.980  17.169  0.00  0.00    +0.000 HD
ATOM     53  H   UNL     1      -9.001 -12.826  18.870  0.00  0.00    +0.000 HD
ATOM     54  H   UNL     1      -7.616 -11.879  18.235  0.00  0.00    +0.000 HD
ENDBRANCH  50  51
ENDBRANCH  47  50
ENDBRANCH  44  47
ENDBRANCH   1  44
TORSDOF 10
ENDMDL
MODEL 5
REMARK VINA RESULT:    -6.613      2.949      6.811
REMARK INTER + INTRA:         -11.135
REMARK INTER:                  -9.139
REMARK INTRA:                  -1.996
REMARK UNBOUND:                -1.622
REMARK  Name = 
REMARK  10 active torsions:
REMARK  status: ('A' for Active; 'I' for Inactive)
REMARK    1  A    between atoms: C_1  and  O_2
REMARK    2  A    between atoms: O_2  and  C_3
REMARK    3  A    between atoms: C_3  and  C_4
REMARK    4  A    between atoms: C_4  and  N_5
REMARK    5  A    between atoms: C_11  and  C_12
REMARK    6  A    between atoms: C_13  and  C_14
REMARK    7  A    between atoms: C_16  and  C_17
REMARK    8  A    between atoms: C_19  and  O_20
REMARK    9  A    between atoms: C_22  and  C_23
REMARK   10  A    between atoms: C_26  and  C_27
REMARK                            x       y       z     vdW  Elec       q    Type
REMARK                         _______ _______ _______ _____ _____    ______ ____
ROOT
ATOM      1  N   UNL     1     -10.505  -6.415  16.784  0.00  0.00    +0.000 N 
ATOM      2  C   UNL     1      -9.480  -6.623  15.857  0.00  0.00    +0.000 C 
ATOM      3  O   UNL     1      -8.710  -7.562  15.768  0.00  0.00    +0.000 OA
ATOM      4  C   UNL     1      -9.522  -5.459  15.054  0.00  0.00    +0.000 A 
ATOM      5  N   UNL     1      -8.888  -4.939  13.998  0.00  0.00    +0.000 N 
ATOM      6  N   UNL     1      -9.405  -3.739  13.649  0.00  0.00    +0.000 NA
ATOM      7  C   UNL     1     -10.353  -3.456  14.579  0.00  0.00    +0.000 A 
ATOM      8  C   UNL     1     -10.454  -4.553  15.467  0.00  0.00    +0.000 A 
ATOM      9  C   UNL     1     -11.170  -5.085  16.653  0.00  0.00    +0.000 C 
ATOM     10  H   UNL     1      -8.113  -5.319  13.464  0.00  0.00    +0.000 HD
ATOM     11  H   UNL     1     -12.231  -5.261  16.464  0.00  0.00    +0.000 HD
ENDROOT
BRANCH   9  12
ATOM     12  C   UNL     1     -10.902  -4.157  17.816  0.00  0.00    +0.000 A 
ATOM     13  C   UNL     1      -9.609  -4.092  18.361  0.00  0.00    +0.000 A 
ATOM     14  C   UNL     1      -9.318  -3.234  19.424  0.00  0.00    +0.000 A 
ATOM     15  C   UNL     1     -10.316  -2.423  19.970  0.00  0.00    +0.000 A 
ATOM     16  C   UNL     1     -11.606  -2.476  19.435  0.00  0.00    +0.000 A 
ATOM     17  C   UNL     1     -11.894  -3.327  18.366  0.00  0.00    +0.000 A 
ATOM     18  H   UNL     1      -8.815  -4.716  17.955  0.00  0.00    +0.000 HD
ATOM     19  H   UNL     1      -8.307  -3.209  19.825  0.00  0.00    +0.000 HD
ATOM     20  H   UNL     1     -12.399  -1.859  19.848  0.00  0.00    +0.000 HD
ATOM     21  H   UNL     1     -12.908  -3.344  17.973  0.00  0.00    +0.000 HD
BRANCH  15  22
ATOM     22  C   UNL     1     -10.027  -1.511  21.126  0.00  0.00    +0.000 C 
ATOM     23  H   UNL     1     -10.816  -0.768  21.257  0.00  0.00    +0.000 HD
ATOM     24  H   UNL     1      -9.083  -0.983  20.960  0.00  0.00    +0.000 HD
ATOM     25  H   UNL     1      -9.955  -2.090  22.053  0.00  0.00    +0.000 HD
ENDBRANCH  15  22
ENDBRANCH   9  12
BRANCH   7  26
ATOM     26  C   UNL     1     -11.098  -2.179  14.583  0.00  0.00    +0.000 A 
ATOM     27  C   UNL     1     -10.786  -1.105  15.455  0.00  0.00    +0.000 A 
ATOM     28  C   UNL     1     -11.599   0.055  15.457  0.00  0.00    +0.000 A 
ATOM     29  C   UNL     1     -12.698   0.192  14.609  0.00  0.00    +0.000 A 
ATOM     30  C   UNL     1     -12.976  -0.837  13.714  0.00  0.00    +0.000 A 
ATOM     31  C   UNL     1     -12.183  -1.993  13.695  0.00  0.00    +0.000 A 
ATOM     32  H   UNL     1     -11.357   0.865  16.145  0.00  0.00    +0.000 HD
ATOM     33  H   UNL     1     -13.816  -0.731  13.034  0.00  0.00    +0.000 HD
BRANCH  27  34
ATOM     34  C   UNL     1      -9.640  -1.055  16.436  0.00  0.00    +0.000 C 
ATOM     35  H   UNL     1      -8.749  -1.611  16.156  0.00  0.00    +0.000 HD
ATOM     36  H   UNL     1      -9.966  -1.443  17.407  0.00  0.00    +0.000 HD
ATOM     37  H   UNL     1      -9.323  -0.013  16.566  0.00  0.00    +0.000 HD
ENDBRANCH  27  34
BRANCH  29  38
ATOM     38  C   UNL     1     -13.543   1.430  14.633  0.00  0.00    +0.000 C 
ATOM     39  H   UNL     1     -13.774   1.739  15.658  0.00  0.00    +0.000 HD
ATOM     40  H   UNL     1     -14.493   1.251  14.120  0.00  0.00    +0.000 HD
ATOM     41  H   UNL     1     -13.016   2.254  14.141  0.00  0.00    +0.000 HD
ENDBRANCH  29  38
BRANCH  31  42
ATOM     42  O   UNL     1     -12.485  -2.939  12.746  0.00  0.00    +0.000 OA
ATOM     43  H   UNL     1     -12.080  -2.672  11.904  0.00  0.00    +0.000 HD
ENDBRANCH  31  42
ENDBRANCH   7  26
BRANCH   1  44
ATOM     44  C   UNL     1     -10.780  -7.353  17.866  0.00  0.00    +0.000 C 
ATOM     45  H   UNL     1     -11.724  -7.050  18.336  0.00  0.00    +0.000 HD
ATOM     46  H   UNL     1     -10.944  -8.333  17.407  0.00  0.00    +0.000 HD
BRANCH  44  47
ATOM     47  C   UNL     1      -9.690  -7.469  18.937  0.00  0.00    +0.000 C 
ATOM     48  H   UNL     1      -8.859  -6.804  18.673  0.00  0.00    +0.000 HD
ATOM     49  H   UNL     1     -10.071  -7.165  19.916  0.00  0.00    +0.000 HD
BRANCH  47  50
ATOM     50  O   UNL     1      -9.206  -8.811  19.014  0.00  0.00    +0.000 OA
BRANCH  50  51
ATOM     51  C   UNL     1      -8.825  -9.154  20.339  0.00  0.00    +0.000 C 
ATOM     52  H   UNL     1      -9.586  -9.817  20.760  0.00  0.00    +0.000 HD
ATOM     53  H   UNL     1      -8.763  -8.256  20.963  0.00  0.00    +0.000 HD
ATOM     54  H   UNL     1      -7.864  -9.678  20.339  0.00  0.00    +0.000 HD
ENDBRANCH  50  51
ENDBRANCH  47  50
ENDBRANCH  44  47
ENDBRANCH   1  44
TORSDOF 10
ENDMDL
MODEL 6
REMARK VINA RESULT:    -6.589      4.585      7.381
REMARK INTER + INTRA:         -11.100
REMARK INTER:                  -9.647
REMARK INTRA:                  -1.453
REMARK UNBOUND:                -1.622
REMARK  Name = 
REMARK  10 active torsions:
REMARK  status: ('A' for Active; 'I' for Inactive)
REMARK    1  A    between atoms: C_1  and  O_2
REMARK    2  A    between atoms: O_2  and  C_3
REMARK    3  A    between atoms: C_3  and  C_4
REMARK    4  A    between atoms: C_4  and  N_5
REMARK    5  A    between atoms: C_11  and  C_12
REMARK    6  A    between atoms: C_13  and  C_14
REMARK    7  A    between atoms: C_16  and  C_17
REMARK    8  A    between atoms: C_19  and  O_20
REMARK    9  A    between atoms: C_22  and  C_23
REMARK   10  A    between atoms: C_26  and  C_27
REMARK                            x       y       z     vdW  Elec       q    Type
REMARK                         _______ _______ _______ _____ _____    ______ ____
ROOT
ATOM      1  N   UNL     1      -9.464  -2.185  24.173  0.00  0.00    +0.000 N 
ATOM      2  C   UNL     1     -10.822  -2.509  24.113  0.00  0.00    +0.000 C 
ATOM      3  O   UNL     1     -11.516  -3.049  24.956  0.00  0.00    +0.000 OA
ATOM      4  C   UNL     1     -11.204  -2.090  22.817  0.00  0.00    +0.000 A 
ATOM      5  N   UNL     1     -12.297  -2.056  22.049  0.00  0.00    +0.000 N 
ATOM      6  N   UNL     1     -12.042  -1.496  20.845  0.00  0.00    +0.000 NA
ATOM      7  C   UNL     1     -10.709  -1.241  20.827  0.00  0.00    +0.000 A 
ATOM      8  C   UNL     1     -10.166  -1.594  22.085  0.00  0.00    +0.000 A 
ATOM      9  C   UNL     1      -8.924  -1.630  22.896  0.00  0.00    +0.000 C 
ATOM     10  H   UNL     1     -13.236  -2.382  22.255  0.00  0.00    +0.000 HD
ATOM     11  H   UNL     1      -8.527  -0.636  23.108  0.00  0.00    +0.000 HD
ENDROOT
BRANCH   9  12
ATOM     12  C   UNL     1      -7.941  -2.548  22.206  0.00  0.00    +0.000 A 
ATOM     13  C   UNL     1      -6.563  -2.358  22.409  0.00  0.00    +0.000 A 
ATOM     14  C   UNL     1      -5.624  -3.196  21.804  0.00  0.00    +0.000 A 
ATOM     15  C   UNL     1      -6.041  -4.242  20.976  0.00  0.00    +0.000 A 
ATOM     16  C   UNL     1      -7.409  -4.443  20.769  0.00  0.00    +0.000 A 
ATOM     17  C   UNL     1      -8.347  -3.611  21.382  0.00  0.00    +0.000 A 
ATOM     18  H   UNL     1      -6.214  -1.548  23.046  0.00  0.00    +0.000 HD
ATOM     19  H   UNL     1      -4.566  -3.020  21.979  0.00  0.00    +0.000 HD
ATOM     20  H   UNL     1      -7.755  -5.247  20.124  0.00  0.00    +0.000 HD
ATOM     21  H   UNL     1      -9.404  -3.795  21.200  0.00  0.00    +0.000 HD
BRANCH  15  22
ATOM     22  C   UNL     1      -5.046  -5.139  20.301  0.00  0.00    +0.000 C 
ATOM     23  H   UNL     1      -5.533  -5.996  19.832  0.00  0.00    +0.000 HD
ATOM     24  H   UNL     1      -4.321  -5.512  21.030  0.00  0.00    +0.000 HD
ATOM     25  H   UNL     1      -4.513  -4.586  19.518  0.00  0.00    +0.000 HD
ENDBRANCH  15  22
ENDBRANCH   9  12
BRANCH   7  26
ATOM     26  C   UNL     1     -10.027  -0.692  19.635  0.00  0.00    +0.000 A 
ATOM     27  C   UNL     1      -9.723  -1.474  18.490  0.00  0.00    +0.000 A 
ATOM     28  C   UNL     1      -8.993  -0.896  17.422  0.00  0.00    +0.000 A 
ATOM     29  C   UNL     1      -8.573   0.434  17.444  0.00  0.00    +0.000 A 
ATOM     30  C   UNL     1      -8.916   1.218  18.541  0.00  0.00    +0.000 A 
ATOM     31  C   UNL     1      -9.639   0.667  19.608  0.00  0.00    +0.000 A 
ATOM     32  H   UNL     1      -8.752  -1.514  16.557  0.00  0.00    +0.000 HD
ATOM     33  H   UNL     1      -8.613   2.261  18.558  0.00  0.00    +0.000 HD
BRANCH  27  34
ATOM     34  C   UNL     1     -10.095  -2.920  18.272  0.00  0.00    +0.000 C 
ATOM     35  H   UNL     1      -9.756  -3.619  19.031  0.00  0.00    +0.000 HD
ATOM     36  H   UNL     1      -9.690  -3.266  17.315  0.00  0.00    +0.000 HD
ATOM     37  H   UNL     1     -11.188  -3.008  18.239  0.00  0.00    +0.000 HD
ENDBRANCH  27  34
BRANCH  29  38
ATOM     38  C   UNL     1      -7.800   1.018  16.300  0.00  0.00    +0.000 C 
ATOM     39  H   UNL     1      -8.430   1.144  15.413  0.00  0.00    +0.000 HD
ATOM     40  H   UNL     1      -6.972   0.358  16.025  0.00  0.00    +0.000 HD
ATOM     41  H   UNL     1      -7.404   2.000  16.577  0.00  0.00    +0.000 HD
ENDBRANCH  29  38
BRANCH  31  42
ATOM     42  O   UNL     1      -9.988   1.518  20.628  0.00  0.00    +0.000 OA
ATOM     43  H   UNL     1     -10.311   2.348  20.240  0.00  0.00    +0.000 HD
ENDBRANCH  31  42
ENDBRANCH   7  26
BRANCH   1  44
ATOM     44  C   UNL     1      -8.635  -2.508  25.328  0.00  0.00    +0.000 C 
ATOM     45  H   UNL     1      -8.750  -3.580  25.529  0.00  0.00    +0.000 HD
ATOM     46  H   UNL     1      -7.594  -2.343  25.031  0.00  0.00    +0.000 HD
BRANCH  44  47
ATOM     47  C   UNL     1      -8.933  -1.713  26.603  0.00  0.00    +0.000 C 
ATOM     48  H   UNL     1      -8.590  -0.681  26.467  0.00  0.00    +0.000 HD
ATOM     49  H   UNL     1     -10.006  -1.692  26.809  0.00  0.00    +0.000 HD
BRANCH  47  50
ATOM     50  O   UNL     1      -8.249  -2.286  27.720  0.00  0.00    +0.000 OA
BRANCH  50  51
ATOM     51  C   UNL     1      -7.756  -3.585  27.420  0.00  0.00    +0.000 C 
ATOM     52  H   UNL     1      -6.663  -3.557  27.446  0.00  0.00    +0.000 HD
ATOM     53  H   UNL     1      -8.073  -3.892  26.419  0.00  0.00    +0.000 HD
ATOM     54  H   UNL     1      -8.106  -4.309  28.163  0.00  0.00    +0.000 HD
ENDBRANCH  50  51
ENDBRANCH  47  50
ENDBRANCH  44  47
ENDBRANCH   1  44
TORSDOF 10
ENDMDL
MODEL 7
REMARK VINA RESULT:    -6.473      2.675      6.956
REMARK INTER + INTRA:         -10.933
REMARK INTER:                  -9.608
REMARK INTRA:                  -1.325
REMARK UNBOUND:                -1.622
REMARK  Name = 
REMARK  10 active torsions:
REMARK  status: ('A' for Active; 'I' for Inactive)
REMARK    1  A    between atoms: C_1  and  O_2
REMARK    2  A    between atoms: O_2  and  C_3
REMARK    3  A    between atoms: C_3  and  C_4
REMARK    4  A    between atoms: C_4  and  N_5
REMARK    5  A    between atoms: C_11  and  C_12
REMARK    6  A    between atoms: C_13  and  C_14
REMARK    7  A    between atoms: C_16  and  C_17
REMARK    8  A    between atoms: C_19  and  O_20
REMARK    9  A    between atoms: C_22  and  C_23
REMARK   10  A    between atoms: C_26  and  C_27
REMARK                            x       y       z     vdW  Elec       q    Type
REMARK                         _______ _______ _______ _____ _____    ______ ____
ROOT
ATOM      1  N   UNL     1     -10.787  -2.758  16.716  0.00  0.00    +0.000 N 
ATOM      2  C   UNL     1     -10.029  -1.640  16.357  0.00  0.00    +0.000 C 
ATOM      3  O   UNL     1      -9.731  -1.245  15.244  0.00  0.00    +0.000 OA
ATOM      4  C   UNL     1      -9.655  -1.082  17.601  0.00  0.00    +0.000 A 
ATOM      5  N   UNL     1      -8.960  -0.041  18.072  0.00  0.00    +0.000 N 
ATOM      6  N   UNL     1      -8.961  -0.014  19.425  0.00  0.00    +0.000 NA
ATOM      7  C   UNL     1      -9.617  -1.135  19.820  0.00  0.00    +0.000 A 
ATOM      8  C   UNL     1     -10.085  -1.813  18.669  0.00  0.00    +0.000 A 
ATOM      9  C   UNL     1     -10.847  -2.991  18.189  0.00  0.00    +0.000 C 
ATOM     10  H   UNL     1      -8.466   0.683  17.563  0.00  0.00    +0.000 HD
ATOM     11  H   UNL     1     -11.897  -2.967  18.486  0.00  0.00    +0.000 HD
ENDROOT
BRANCH   9  12
ATOM     12  C   UNL     1     -10.114  -4.237  18.635  0.00  0.00    +0.000 A 
ATOM     13  C   UNL     1     -10.743  -5.487  18.509  0.00  0.00    +0.000 A 
ATOM     14  C   UNL     1     -10.091  -6.662  18.892  0.00  0.00    +0.000 A 
ATOM     15  C   UNL     1      -8.796  -6.613  19.415  0.00  0.00    +0.000 A 
ATOM     16  C   UNL     1      -8.159  -5.375  19.542  0.00  0.00    +0.000 A 
ATOM     17  C   UNL     1      -8.807  -4.202  19.150  0.00  0.00    +0.000 A 
ATOM     18  H   UNL     1     -11.752  -5.551  18.107  0.00  0.00    +0.000 HD
ATOM     19  H   UNL     1     -10.606  -7.613  18.785  0.00  0.00    +0.000 HD
ATOM     20  H   UNL     1      -7.155  -5.313  19.952  0.00  0.00    +0.000 HD
ATOM     21  H   UNL     1      -8.283  -3.255  19.262  0.00  0.00    +0.000 HD
BRANCH  15  22
ATOM     22  C   UNL     1      -8.090  -7.861  19.852  0.00  0.00    +0.000 C 
ATOM     23  H   UNL     1      -8.657  -8.397  20.615  0.00  0.00    +0.000 HD
ATOM     24  H   UNL     1      -7.108  -7.612  20.267  0.00  0.00    +0.000 HD
ATOM     25  H   UNL     1      -7.956  -8.536  18.999  0.00  0.00    +0.000 HD
ENDBRANCH  15  22
ENDBRANCH   9  12
BRANCH   7  26
ATOM     26  C   UNL     1      -9.760  -1.504  21.245  0.00  0.00    +0.000 A 
ATOM     27  C   UNL     1     -11.004  -1.482  21.928  0.00  0.00    +0.000 A 
ATOM     28  C   UNL     1     -11.046  -1.769  23.315  0.00  0.00    +0.000 A 
ATOM     29  C   UNL     1      -9.900  -2.094  24.040  0.00  0.00    +0.000 A 
ATOM     30  C   UNL     1      -8.687  -2.170  23.363  0.00  0.00    +0.000 A 
ATOM     31  C   UNL     1      -8.623  -1.892  21.991  0.00  0.00    +0.000 A 
ATOM     32  H   UNL     1     -12.006  -1.731  23.830  0.00  0.00    +0.000 HD
ATOM     33  H   UNL     1      -7.792  -2.444  23.914  0.00  0.00    +0.000 HD
BRANCH  27  34
ATOM     34  C   UNL     1     -12.349  -1.164  21.323  0.00  0.00    +0.000 C 
ATOM     35  H   UNL     1     -13.201  -1.231  21.994  0.00  0.00    +0.000 HD
ATOM     36  H   UNL     1     -12.548  -1.841  20.486  0.00  0.00    +0.000 HD
ATOM     37  H   UNL     1     -12.338  -0.135  20.943  0.00  0.00    +0.000 HD
ENDBRANCH  27  34
BRANCH  29  38
ATOM     38  C   UNL     1      -9.974  -2.391  25.508  0.00  0.00    +0.000 C 
ATOM     39  H   UNL     1     -10.980  -2.217  25.903  0.00  0.00    +0.000 HD
ATOM     40  H   UNL     1      -9.286  -1.743  26.061  0.00  0.00    +0.000 HD
ATOM     41  H   UNL     1      -9.713  -3.438  25.693  0.00  0.00    +0.000 HD
ENDBRANCH  29  38
BRANCH  31  42
ATOM     42  O   UNL     1      -7.401  -2.042  21.382  0.00  0.00    +0.000 OA
ATOM     43  H   UNL     1      -7.226  -1.253  20.843  0.00  0.00    +0.000 HD
ENDBRANCH  31  42
ENDBRANCH   7  26
BRANCH   1  44
ATOM     44  C   UNL     1     -11.328  -3.683  15.728  0.00  0.00    +0.000 C 
ATOM     45  H   UNL     1     -12.042  -4.338  16.242  0.00  0.00    +0.000 HD
ATOM     46  H   UNL     1     -11.895  -3.086  15.006  0.00  0.00    +0.000 HD
BRANCH  44  47
ATOM     47  C   UNL     1     -10.297  -4.537  14.983  0.00  0.00    +0.000 C 
ATOM     48  H   UNL     1      -9.303  -4.342  15.403  0.00  0.00    +0.000 HD
ATOM     49  H   UNL     1     -10.514  -5.602  15.100  0.00  0.00    +0.000 HD
BRANCH  47  50
ATOM     50  O   UNL     1     -10.287  -4.207  13.592  0.00  0.00    +0.000 OA
BRANCH  50  51
ATOM     51  C   UNL     1     -11.585  -3.864  13.127  0.00  0.00    +0.000 C 
ATOM     52  H   UNL     1     -11.879  -2.915  13.584  0.00  0.00    +0.000 HD
ATOM     53  H   UNL     1     -12.311  -4.630  13.420  0.00  0.00    +0.000 HD
ATOM     54  H   UNL     1     -11.584  -3.745  12.040  0.00  0.00    +0.000 HD
ENDBRANCH  50  51
ENDBRANCH  47  50
ENDBRANCH  44  47
ENDBRANCH   1  44
TORSDOF 10
ENDMDL
MODEL 8
REMARK VINA RESULT:    -6.300      4.047      6.680
REMARK INTER + INTRA:         -10.685
REMARK INTER:                  -8.621
REMARK INTRA:                  -2.064
REMARK UNBOUND:                -1.622
REMARK  Name = 
REMARK  10 active torsions:
REMARK  status: ('A' for Active; 'I' for Inactive)
REMARK    1  A    between atoms: C_1  and  O_2
REMARK    2  A    between atoms: O_2  and  C_3
REMARK    3  A    between atoms: C_3  and  C_4
REMARK    4  A    between atoms: C_4  and  N_5
REMARK    5  A    between atoms: C_11  and  C_12
REMARK    6  A    between atoms: C_13  and  C_14
REMARK    7  A    between atoms: C_16  and  C_17
REMARK    8  A    between atoms: C_19  and  O_20
REMARK    9  A    between atoms: C_22  and  C_23
REMARK   10  A    between atoms: C_26  and  C_27
REMARK                            x       y       z     vdW  Elec       q    Type
REMARK                         _______ _______ _______ _____ _____    ______ ____
ROOT
ATOM      1  N   UNL     1      -9.628  -2.758  23.934  0.00  0.00    +0.000 N 
ATOM      2  C   UNL     1      -8.374  -3.298  23.636  0.00  0.00    +0.000 C 
ATOM      3  O   UNL     1      -7.484  -3.628  24.400  0.00  0.00    +0.000 OA
ATOM      4  C   UNL     1      -8.362  -3.344  22.223  0.00  0.00    +0.000 A 
ATOM      5  N   UNL     1      -7.549  -3.725  21.232  0.00  0.00    +0.000 N 
ATOM      6  N   UNL     1      -8.117  -3.532  20.020  0.00  0.00    +0.000 NA
ATOM      7  C   UNL     1      -9.309  -2.927  20.259  0.00  0.00    +0.000 A 
ATOM      8  C   UNL     1      -9.488  -2.821  21.658  0.00  0.00    +0.000 A 
ATOM      9  C   UNL     1     -10.413  -2.367  22.726  0.00  0.00    +0.000 C 
ATOM     10  H   UNL     1      -6.614  -4.116  21.285  0.00  0.00    +0.000 HD
ATOM     11  H   UNL     1     -11.349  -2.929  22.744  0.00  0.00    +0.000 HD
ENDROOT
BRANCH   9  12
ATOM     12  C   UNL     1     -10.599  -0.874  22.581  0.00  0.00    +0.000 A 
ATOM     13  C   UNL     1     -11.824  -0.376  22.106  0.00  0.00    +0.000 A 
ATOM     14  C   UNL     1     -12.040   0.998  21.976  0.00  0.00    +0.000 A 
ATOM     15  C   UNL     1     -11.034   1.907  22.314  0.00  0.00    +0.000 A 
ATOM     16  C   UNL     1      -9.812   1.423  22.791  0.00  0.00    +0.000 A 
ATOM     17  C   UNL     1      -9.600   0.051  22.930  0.00  0.00    +0.000 A 
ATOM     18  H   UNL     1     -12.622  -1.063  21.834  0.00  0.00    +0.000 HD
ATOM     19  H   UNL     1     -12.998   1.351  21.603  0.00  0.00    +0.000 HD
ATOM     20  H   UNL     1      -9.013   2.112  23.054  0.00  0.00    +0.000 HD
ATOM     21  H   UNL     1      -8.637  -0.292  23.304  0.00  0.00    +0.000 HD
BRANCH  15  22
ATOM     22  C   UNL     1     -11.241   3.384  22.160  0.00  0.00    +0.000 C 
ATOM     23  H   UNL     1     -11.413   3.867  23.124  0.00  0.00    +0.000 HD
ATOM     24  H   UNL     1     -12.107   3.578  21.521  0.00  0.00    +0.000 HD
ATOM     25  H   UNL     1     -10.354   3.843  21.709  0.00  0.00    +0.000 HD
ENDBRANCH  15  22
ENDBRANCH   9  12
BRANCH   7  26
ATOM     26  C   UNL     1     -10.200  -2.481  19.166  0.00  0.00    +0.000 A 
ATOM     27  C   UNL     1     -10.227  -1.145  18.688  0.00  0.00    +0.000 A 
ATOM     28  C   UNL     1     -11.168  -0.776  17.694  0.00  0.00    +0.000 A 
ATOM     29  C   UNL     1     -12.067  -1.692  17.148  0.00  0.00    +0.000 A 
ATOM     30  C   UNL     1     -12.008  -3.014  17.576  0.00  0.00    +0.000 A 
ATOM     31  C   UNL     1     -11.083  -3.401  18.556  0.00  0.00    +0.000 A 
ATOM     32  H   UNL     1     -11.189   0.258  17.350  0.00  0.00    +0.000 HD
ATOM     33  H   UNL     1     -12.688  -3.740  17.141  0.00  0.00    +0.000 HD
BRANCH  27  34
ATOM     34  C   UNL     1      -9.336  -0.016  19.142  0.00  0.00    +0.000 C 
ATOM     35  H   UNL     1      -8.709  -0.221  20.005  0.00  0.00    +0.000 HD
ATOM     36  H   UNL     1      -9.944   0.859  19.390  0.00  0.00    +0.000 HD
ATOM     37  H   UNL     1      -8.654   0.254  18.326  0.00  0.00    +0.000 HD
ENDBRANCH  27  34
BRANCH  29  38
ATOM     38  C   UNL     1     -13.054  -1.273  16.100  0.00  0.00    +0.000 C 
ATOM     39  H   UNL     1     -13.871  -1.995  16.005  0.00  0.00    +0.000 HD
ATOM     40  H   UNL     1     -12.562  -1.201  15.125  0.00  0.00    +0.000 HD
ATOM     41  H   UNL     1     -13.487  -0.302  16.358  0.00  0.00    +0.000 HD
ENDBRANCH  29  38
BRANCH  31  42
ATOM     42  O   UNL     1     -11.047  -4.734  18.885  0.00  0.00    +0.000 OA
ATOM     43  H   UNL     1     -10.351  -5.163  18.360  0.00  0.00    +0.000 HD
ENDBRANCH  31  42
ENDBRANCH   7  26
BRANCH   1  44
ATOM     44  C   UNL     1     -10.047  -2.466  25.300  0.00  0.00    +0.000 C 
ATOM     45  H   UNL     1     -11.073  -2.081  25.257  0.00  0.00    +0.000 HD
ATOM     46  H   UNL     1     -10.079  -3.420  25.836  0.00  0.00    +0.000 HD
BRANCH  44  47
ATOM     47  C   UNL     1      -9.162  -1.480  26.070  0.00  0.00    +0.000 C 
ATOM     48  H   UNL     1      -8.142  -1.530  25.672  0.00  0.00    +0.000 HD
ATOM     49  H   UNL     1      -9.524  -0.455  25.951  0.00  0.00    +0.000 HD
BRANCH  47  50
ATOM     50  O   UNL     1      -9.136  -1.813  27.460  0.00  0.00    +0.000 OA
BRANCH  50  51
ATOM     51  C   UNL     1      -8.027  -2.644  27.776  0.00  0.00    +0.000 C 
ATOM     52  H   UNL     1      -7.118  -2.038  27.746  0.00  0.00    +0.000 HD
ATOM     53  H   UNL     1      -7.932  -3.450  27.042  0.00  0.00    +0.000 HD
ATOM     54  H   UNL     1      -8.137  -3.063  28.781  0.00  0.00    +0.000 HD
ENDBRANCH  50  51
ENDBRANCH  47  50
ENDBRANCH  44  47
ENDBRANCH   1  44
TORSDOF 10
ENDMDL
MODEL 9
REMARK VINA RESULT:    -6.225      4.704      8.400
REMARK INTER + INTRA:         -10.577
REMARK INTER:                  -8.823
REMARK INTRA:                  -1.754
REMARK UNBOUND:                -1.622
REMARK  Name = 
REMARK  10 active torsions:
REMARK  status: ('A' for Active; 'I' for Inactive)
REMARK    1  A    between atoms: C_1  and  O_2
REMARK    2  A    between atoms: O_2  and  C_3
REMARK    3  A    between atoms: C_3  and  C_4
REMARK    4  A    between atoms: C_4  and  N_5
REMARK    5  A    between atoms: C_11  and  C_12
REMARK    6  A    between atoms: C_13  and  C_14
REMARK    7  A    between atoms: C_16  and  C_17
REMARK    8  A    between atoms: C_19  and  O_20
REMARK    9  A    between atoms: C_22  and  C_23
REMARK   10  A    between atoms: C_26  and  C_27
REMARK                            x       y       z     vdW  Elec       q    Type
REMARK                         _______ _______ _______ _____ _____    ______ ____
ROOT
ATOM      1  N   UNL     1      -9.712   2.253  23.838  0.00  0.00    +0.000 N 
ATOM      2  C   UNL     1     -11.022   2.703  24.020  0.00  0.00    +0.000 C 
ATOM      3  O   UNL     1     -11.454   3.475  24.857  0.00  0.00    +0.000 OA
ATOM      4  C   UNL     1     -11.748   2.022  23.015  0.00  0.00    +0.000 A 
ATOM      5  N   UNL     1     -13.002   1.934  22.560  0.00  0.00    +0.000 N 
ATOM      6  N   UNL     1     -13.091   1.086  21.510  0.00  0.00    +0.000 NA
ATOM      7  C   UNL     1     -11.851   0.557  21.350  0.00  0.00    +0.000 A 
ATOM      8  C   UNL     1     -10.980   1.161  22.288  0.00  0.00    +0.000 A 
ATOM      9  C   UNL     1      -9.579   1.214  22.774  0.00  0.00    +0.000 C 
ATOM     10  H   UNL     1     -13.839   2.400  22.893  0.00  0.00    +0.000 HD
ATOM     11  H   UNL     1      -8.884   1.595  22.023  0.00  0.00    +0.000 HD
ENDROOT
BRANCH   9  12
ATOM     12  C   UNL     1      -9.215  -0.154  23.305  0.00  0.00    +0.000 A 
ATOM     13  C   UNL     1      -8.408  -1.001  22.527  0.00  0.00    +0.000 A 
ATOM     14  C   UNL     1      -8.035  -2.265  22.991  0.00  0.00    +0.000 A 
ATOM     15  C   UNL     1      -8.465  -2.713  24.243  0.00  0.00    +0.000 A 
ATOM     16  C   UNL     1      -9.267  -1.878  25.027  0.00  0.00    +0.000 A 
ATOM     17  C   UNL     1      -9.631  -0.611  24.567  0.00  0.00    +0.000 A 
ATOM     18  H   UNL     1      -8.063  -0.676  21.548  0.00  0.00    +0.000 HD
ATOM     19  H   UNL     1      -7.412  -2.897  22.364  0.00  0.00    +0.000 HD
ATOM     20  H   UNL     1      -9.618  -2.209  26.001  0.00  0.00    +0.000 HD
ATOM     21  H   UNL     1     -10.255   0.014  25.202  0.00  0.00    +0.000 HD
BRANCH  15  22
ATOM     22  C   UNL     1      -8.093  -4.075  24.748  0.00  0.00    +0.000 C 
ATOM     23  H   UNL     1      -7.058  -4.324  24.504  0.00  0.00    +0.000 HD
ATOM     24  H   UNL     1      -8.743  -4.833  24.300  0.00  0.00    +0.000 HD
ATOM     25  H   UNL     1      -8.198  -4.113  25.838  0.00  0.00    +0.000 HD
ENDBRANCH  15  22
ENDBRANCH   9  12
BRANCH   7  26
ATOM     26  C   UNL     1     -11.561  -0.482  20.339  0.00  0.00    +0.000 A 
ATOM     27  C   UNL     1     -11.197  -0.178  19.002  0.00  0.00    +0.000 A 
ATOM     28  C   UNL     1     -11.017  -1.230  18.069  0.00  0.00    +0.000 A 
ATOM     29  C   UNL     1     -11.167  -2.570  18.424  0.00  0.00    +0.000 A 
ATOM     30  C   UNL     1     -11.471  -2.874  19.747  0.00  0.00    +0.000 A 
ATOM     31  C   UNL     1     -11.652  -1.849  20.687  0.00  0.00    +0.000 A 
ATOM     32  H   UNL     1     -10.754  -0.980  17.041  0.00  0.00    +0.000 HD
ATOM     33  H   UNL     1     -11.568  -3.916  20.040  0.00  0.00    +0.000 HD
BRANCH  27  34
ATOM     34  C   UNL     1     -10.979   1.200  18.427  0.00  0.00    +0.000 C 
ATOM     35  H   UNL     1     -10.704   1.240  17.377  0.00  0.00    +0.000 HD
ATOM     36  H   UNL     1     -10.189   1.713  18.984  0.00  0.00    +0.000 HD
ATOM     37  H   UNL     1     -11.906   1.780  18.523  0.00  0.00    +0.000 HD
ENDBRANCH  27  34
BRANCH  29  38
ATOM     38  C   UNL     1     -10.972  -3.662  17.416  0.00  0.00    +0.000 C 
ATOM     39  H   UNL     1     -11.809  -3.713  16.712  0.00  0.00    +0.000 HD
ATOM     40  H   UNL     1     -10.902  -4.632  17.917  0.00  0.00    +0.000 HD
ATOM     41  H   UNL     1     -10.056  -3.484  16.842  0.00  0.00    +0.000 HD
ENDBRANCH  29  38
BRANCH  31  42
ATOM     42  O   UNL     1     -11.894  -2.231  21.984  0.00  0.00    +0.000 OA
ATOM     43  H   UNL     1     -11.748  -1.464  22.563  0.00  0.00    +0.000 HD
ENDBRANCH  31  42
ENDBRANCH   7  26
BRANCH   1  44
ATOM     44  C   UNL     1      -8.620   2.653  24.716  0.00  0.00    +0.000 C 
ATOM     45  H   UNL     1      -9.039   2.809  25.718  0.00  0.00    +0.000 HD
ATOM     46  H   UNL     1      -7.931   1.804  24.780  0.00  0.00    +0.000 HD
BRANCH  44  47
ATOM     47  C   UNL     1      -7.846   3.904  24.286  0.00  0.00    +0.000 C 
ATOM     48  H   UNL     1      -6.787   3.772  24.538  0.00  0.00    +0.000 HD
ATOM     49  H   UNL     1      -7.922   4.058  23.206  0.00  0.00    +0.000 HD
BRANCH  47  50
ATOM     50  O   UNL     1      -8.345   5.059  24.964  0.00  0.00    +0.000 OA
BRANCH  50  51
ATOM     51  C   UNL     1      -8.375   4.865  26.372  0.00  0.00    +0.000 C 
ATOM     52  H   UNL     1      -8.036   5.784  26.857  0.00  0.00    +0.000 HD
ATOM     53  H   UNL     1      -7.702   4.051  26.660  0.00  0.00    +0.000 HD
ATOM     54  H   UNL     1      -9.394   4.646  26.708  0.00  0.00    +0.000 HD
ENDBRANCH  50  51
ENDBRANCH  47  50
ENDBRANCH  44  47
ENDBRANCH   1  44
TORSDOF 10
ENDMDL
