
 OpenBabel01112423053D

 47 49  0  0  0  0  0  0  0  0999 V2000
    8.2241    2.1939   -2.9343 C   0  0  0  0  0  0  0  0  0  0  0  0
    7.3014    1.4237   -3.7992 N   0  0  0  0  0  0  0  0  0  0  0  0
    7.7068    1.6176   -5.2060 C   0  0  0  0  0  0  0  0  0  0  0  0
    7.3999    0.0208   -3.4852 N   0  0  0  0  0  0  0  0  0  0  0  0
    6.7185   -0.3730   -2.3209 C   0  0  0  0  0  0  0  0  0  0  0  0
    5.5305    0.1878   -2.1097 N   0  3  0  0  0  0  0  0  0  0  0  0
    4.9191    0.0209   -0.9485 C   0  0  0  0  0  0  0  0  0  0  0  0
    5.4679   -0.6332    0.0892 N   0  0  0  0  0  0  0  0  0  0  0  0
    6.6277   -1.3005   -0.1317 C   0  0  0  0  0  0  0  0  0  0  0  0
    7.1858   -2.1133    0.8828 N   0  0  0  0  0  0  0  0  0  0  0  0
    6.6159   -2.4798    2.1002 N   0  0  0  0  0  0  0  0  0  0  0  0
    7.3461   -2.1885    3.3271 C   0  0  0  0  0  0  0  0  0  0  0  0
    6.6796   -2.1502    4.5718 C   0  0  0  0  0  0  0  0  0  0  0  0
    7.3630   -1.9506    5.7780 C   0  0  0  0  0  0  0  0  0  0  0  0
    8.7402   -1.7541    5.7788 C   0  0  0  0  0  0  0  0  0  0  0  0
    9.4226   -1.7475    4.5647 C   0  0  0  0  0  0  0  0  0  0  0  0
    8.7346   -1.9536    3.3526 C   0  0  0  0  0  0  0  0  0  0  0  0
    5.5596   -3.4746    2.0535 C   0  0  0  0  0  0  0  0  0  0  0  0
    5.4894   -4.5306    2.9746 C   0  0  0  0  0  0  0  0  0  0  0  0
    4.4347   -5.4531    2.9420 C   0  0  0  0  0  0  0  0  0  0  0  0
    3.4384   -5.3615    1.9826 C   0  0  0  0  0  0  0  0  0  0  0  0
    3.5090   -4.3633    1.0315 C   0  0  0  0  0  0  0  0  0  0  0  0
    4.5619   -3.4497    1.0606 C   0  0  0  0  0  0  0  0  0  0  0  0
    7.2358   -1.2984   -1.4057 C   0  0  0  0  0  0  0  0  0  0  0  0
    8.4047   -2.0279   -1.7060 N   0  0  0  0  0  0  0  0  0  0  0  0
    8.2508    3.2476   -3.2343 H   0  0  0  0  0  0  0  0  0  0  0  0
    9.2455    1.7973   -2.9621 H   0  0  0  0  0  0  0  0  0  0  0  0
    7.8743    2.1783   -1.8957 H   0  0  0  0  0  0  0  0  0  0  0  0
    7.7776    2.6832   -5.4436 H   0  0  0  0  0  0  0  0  0  0  0  0
    6.9501    1.1907   -5.8721 H   0  0  0  0  0  0  0  0  0  0  0  0
    8.6732    1.1493   -5.4222 H   0  0  0  0  0  0  0  0  0  0  0  0
    8.3451   -0.3799   -3.4991 H   0  0  0  0  0  0  0  0  0  0  0  0
    5.1598    0.7554   -2.8666 H   0  0  0  0  0  0  0  0  0  0  0  0
    3.9218    0.4335   -0.8348 H   0  0  0  0  0  0  0  0  0  0  0  0
    8.1148   -2.4711    0.7154 H   0  0  0  0  0  0  0  0  0  0  0  0
    5.6017   -2.2901    4.6180 H   0  0  0  0  0  0  0  0  0  0  0  0
    6.8204   -1.9580    6.7216 H   0  0  0  0  0  0  0  0  0  0  0  0
    9.2712   -1.5975    6.7166 H   0  0  0  0  0  0  0  0  0  0  0  0
   10.5002   -1.5890    4.5598 H   0  0  0  0  0  0  0  0  0  0  0  0
    9.3259   -1.9641    2.4439 H   0  0  0  0  0  0  0  0  0  0  0  0
    6.2587   -4.6642    3.7301 H   0  0  0  0  0  0  0  0  0  0  0  0
    4.3968   -6.2508    3.6835 H   0  0  0  0  0  0  0  0  0  0  0  0
    2.6119   -6.0680    1.9773 H   0  0  0  0  0  0  0  0  0  0  0  0
    2.7432   -4.2804    0.2606 H   0  0  0  0  0  0  0  0  0  0  0  0
    4.5430   -2.6950    0.2956 H   0  0  0  0  0  0  0  0  0  0  0  0
    8.4593   -2.9333   -1.2345 H   0  0  0  0  0  0  0  0  0  0  0  0
    9.2830   -1.5172   -1.5827 H   0  0  0  0  0  0  0  0  0  0  0  0
  1  2  1  0  0  0  0
  1 26  1  0  0  0  0
  1 27  1  0  0  0  0
  1 28  1  0  0  0  0
  2  3  1  0  0  0  0
  2  4  1  0  0  0  0
  3 29  1  0  0  0  0
  3 30  1  0  0  0  0
  3 31  1  0  0  0  0
  4  5  1  0  0  0  0
  4 32  1  0  0  0  0
  5  6  1  0  0  0  0
  5 24  2  0  0  0  0
  6  7  2  0  0  0  0
  6 33  1  0  0  0  0
  7  8  1  0  0  0  0
  7 34  1  0  0  0  0
  8  9  2  0  0  0  0
  9 10  1  0  0  0  0
  9 24  1  0  0  0  0
 10 11  1  0  0  0  0
 10 35  1  0  0  0  0
 11 12  1  0  0  0  0
 11 18  1  0  0  0  0
 12 13  1  0  0  0  0
 12 17  2  0  0  0  0
 13 14  2  0  0  0  0
 13 36  1  0  0  0  0
 14 15  1  0  0  0  0
 14 37  1  0  0  0  0
 15 16  2  0  0  0  0
 15 38  1  0  0  0  0
 16 17  1  0  0  0  0
 16 39  1  0  0  0  0
 17 40  1  0  0  0  0
 18 19  1  0  0  0  0
 18 23  2  0  0  0  0
 19 20  2  0  0  0  0
 19 41  1  0  0  0  0
 20 21  1  0  0  0  0
 20 42  1  0  0  0  0
 21 22  2  0  0  0  0
 21 43  1  0  0  0  0
 22 23  1  0  0  0  0
 22 44  1  0  0  0  0
 23 45  1  0  0  0  0
 24 25  1  0  0  0  0
 25 46  1  0  0  0  0
 25 47  1  0  0  0  0
M  CHG  1   6   1
M  END
$$$$
