MODEL 1
REMARK VINA RESULT:   -10.183      0.000      0.000
REMARK INTER + INTRA:         -15.399
REMARK INTER:                 -14.648
REMARK INTRA:                  -0.751
REMARK UNBOUND:                -0.751
REMARK  Name = 
REMARK  9 active torsions:
REMARK  status: ('A' for Active; 'I' for Inactive)
REMARK    1  A    between atoms: C_1  and  C_2
REMARK    2  A    between atoms: C_2  and  C_3
REMARK    3  A    between atoms: C_3  and  C_4
REMARK    4  A    between atoms: C_3  and  C_5
REMARK    5  A    between atoms: C_3  and  C_6
REMARK    6  A    between atoms: C_9  and  N_10
REMARK    7  A    between atoms: N_13  and  C_14
REMARK    8  A    between atoms: C_14  and  C_15
REMARK    9  A    between atoms: C_15  and  C_16
REMARK                            x       y       z     vdW  Elec       q    Type
REMARK                         _______ _______ _______ _____ _____    ______ ____
ROOT
ATOM      1  N   UNL     1      -8.698  -3.910  19.458  0.00  0.00    +0.000 N 
ATOM      2  C   UNL     1      -8.419  -5.211  19.187  0.00  0.00    +0.000 C 
ATOM      3  O   UNL     1      -8.178  -6.056  20.035  0.00  0.00    +0.000 OA
ATOM      4  N   UNL     1      -8.476  -5.506  17.847  0.00  0.00    +0.000 N 
ATOM      5  H   UNL     1      -8.826  -3.214  18.747  0.00  0.00    +0.000 HD
ATOM      6  H   UNL     1      -8.359  -4.727  17.213  0.00  0.00    +0.000 HD
ENDROOT
BRANCH   1  10
ATOM      7  C   UNL     1      -8.407  -1.494  22.390  0.00  0.00    +0.000 C 
ATOM      8  N   UNL     1      -7.141  -2.205  22.132  0.00  0.00    +0.000 NA
ATOM      9  N   UNL     1      -7.330  -3.376  21.268  0.00  0.00    +0.000 NA
ATOM     10  C   UNL     1      -8.710  -3.457  20.801  0.00  0.00    +0.000 C 
ATOM     11  S   UNL     1      -9.430  -1.837  20.929  0.00  0.00    +0.000 S 
ATOM     12  H   UNL     1      -8.171  -0.424  22.373  0.00  0.00    +0.000 HD
ATOM     13  H   UNL     1      -6.596  -2.381  22.975  0.00  0.00    +0.000 HD
ATOM     14  H   UNL     1      -7.113  -4.257  21.738  0.00  0.00    +0.000 HD
ATOM     15  H   UNL     1      -9.279  -4.155  21.416  0.00  0.00    +0.000 HD
BRANCH   7  16
ATOM     16  C   UNL     1      -9.096  -1.819  23.777  0.00  0.00    +0.000 C 
BRANCH  16  17
ATOM     17  C   UNL     1      -8.885  -0.635  24.752  0.00  0.00    +0.000 C 
ATOM     18  H   UNL     1      -8.303   0.164  24.278  0.00  0.00    +0.000 HD
ATOM     19  H   UNL     1      -8.355  -0.946  25.657  0.00  0.00    +0.000 HD
ATOM     20  H   UNL     1      -9.834  -0.188  25.065  0.00  0.00    +0.000 HD
ENDBRANCH  16  17
BRANCH  16  21
ATOM     21  C   UNL     1      -8.509  -3.074  24.468  0.00  0.00    +0.000 C 
ATOM     22  H   UNL     1      -7.799  -2.796  25.256  0.00  0.00    +0.000 HD
ATOM     23  H   UNL     1      -7.971  -3.715  23.764  0.00  0.00    +0.000 HD
ATOM     24  H   UNL     1      -9.286  -3.664  24.962  0.00  0.00    +0.000 HD
ENDBRANCH  16  21
BRANCH  16  25
ATOM     25  C   UNL     1     -10.633  -2.081  23.632  0.00  0.00    +0.000 C 
ATOM     26  H   UNL     1     -11.168  -1.129  23.528  0.00  0.00    +0.000 HD
ATOM     27  H   UNL     1     -10.814  -2.618  22.690  0.00  0.00    +0.000 HD
BRANCH  25  28
ATOM     28  C   UNL     1     -11.297  -2.881  24.746  0.00  0.00    +0.000 C 
ATOM     29  H   UNL     1     -11.432  -3.919  24.418  0.00  0.00    +0.000 HD
ATOM     30  H   UNL     1     -12.282  -2.486  25.003  0.00  0.00    +0.000 HD
ATOM     31  H   UNL     1     -10.680  -2.908  25.648  0.00  0.00    +0.000 HD
ENDBRANCH  25  28
ENDBRANCH  16  25
ENDBRANCH   7  16
ENDBRANCH   1  10
BRANCH   4  32
ATOM     32  C   UNL     1      -8.101  -6.838  17.446  0.00  0.00    +0.000 C 
ATOM     33  H   UNL     1      -7.479  -7.249  18.251  0.00  0.00    +0.000 HD
ATOM     34  H   UNL     1      -7.467  -6.762  16.552  0.00  0.00    +0.000 HD
BRANCH  32  35
ATOM     35  C   UNL     1      -9.292  -7.749  17.177  0.00  0.00    +0.000 C 
ATOM     36  H   UNL     1      -9.498  -7.754  16.099  0.00  0.00    +0.000 HD
ATOM     37  H   UNL     1     -10.193  -7.348  17.657  0.00  0.00    +0.000 HD
BRANCH  35  38
ATOM     38  C   UNL     1      -9.038  -9.139  17.674  0.00  0.00    +0.000 C 
ATOM     39  C   UNL     1      -8.912 -10.257  16.948  0.00  0.00    +0.000 A 
ATOM     40  C   UNL     1      -8.955 -10.565  15.558  0.00  0.00    +0.000 A 
ATOM     41  C   UNL     1      -8.774 -11.842  15.179  0.00  0.00    +0.000 A 
ATOM     42  C   UNL     1      -8.542 -12.906  16.144  0.00  0.00    +0.000 A 
ATOM     43  C   UNL     1      -8.480 -12.702  17.472  0.00  0.00    +0.000 A 
ATOM     44  C   UNL     1      -8.665 -11.320  17.944  0.00  0.00    +0.000 A 
ATOM     45  N   UNL     1      -8.641 -10.879  19.141  0.00  0.00    +0.000 N 
ATOM     46  C   UNL     1      -8.867  -9.425  19.146  0.00  0.00    +0.000 C 
ATOM     47  H   UNL     1      -9.120  -9.783  14.821  0.00  0.00    +0.000 HD
ATOM     48  H   UNL     1      -8.793 -12.113  14.125  0.00  0.00    +0.000 HD
ATOM     49  H   UNL     1      -8.414 -13.908  15.738  0.00  0.00    +0.000 HD
ATOM     50  H   UNL     1      -8.303 -13.512  18.167  0.00  0.00    +0.000 HD
ATOM     51  H   UNL     1      -8.473 -11.479  19.945  0.00  0.00    +0.000 HD
ATOM     52  H   UNL     1      -7.981  -8.949  19.576  0.00  0.00    +0.000 HD
ATOM     53  H   UNL     1      -9.765  -9.213  19.730  0.00  0.00    +0.000 HD
ENDBRANCH  35  38
ENDBRANCH  32  35
ENDBRANCH   4  32
TORSDOF 9
ENDMDL
MODEL 2
REMARK VINA RESULT:   -10.087      0.668      1.194
REMARK INTER + INTRA:         -15.260
REMARK INTER:                 -14.633
REMARK INTRA:                  -0.627
REMARK UNBOUND:                -0.751
REMARK  Name = 
REMARK  9 active torsions:
REMARK  status: ('A' for Active; 'I' for Inactive)
REMARK    1  A    between atoms: C_1  and  C_2
REMARK    2  A    between atoms: C_2  and  C_3
REMARK    3  A    between atoms: C_3  and  C_4
REMARK    4  A    between atoms: C_3  and  C_5
REMARK    5  A    between atoms: C_3  and  C_6
REMARK    6  A    between atoms: C_9  and  N_10
REMARK    7  A    between atoms: N_13  and  C_14
REMARK    8  A    between atoms: C_14  and  C_15
REMARK    9  A    between atoms: C_15  and  C_16
REMARK                            x       y       z     vdW  Elec       q    Type
REMARK                         _______ _______ _______ _____ _____    ______ ____
ROOT
ATOM      1  N   UNL     1      -8.593  -3.977  19.893  0.00  0.00    +0.000 N 
ATOM      2  C   UNL     1      -8.365  -5.259  19.510  0.00  0.00    +0.000 C 
ATOM      3  O   UNL     1      -8.184  -6.187  20.283  0.00  0.00    +0.000 OA
ATOM      4  N   UNL     1      -8.399  -5.430  18.149  0.00  0.00    +0.000 N 
ATOM      5  H   UNL     1      -8.671  -3.214  19.244  0.00  0.00    +0.000 HD
ATOM      6  H   UNL     1      -8.230  -4.603  17.590  0.00  0.00    +0.000 HD
ENDROOT
BRANCH   1  10
ATOM      7  C   UNL     1      -8.356  -1.829  23.031  0.00  0.00    +0.000 C 
ATOM      8  N   UNL     1      -7.080  -2.499  22.722  0.00  0.00    +0.000 NA
ATOM      9  N   UNL     1      -7.247  -3.590  21.755  0.00  0.00    +0.000 NA
ATOM     10  C   UNL     1      -8.622  -3.646  21.270  0.00  0.00    +0.000 C 
ATOM     11  S   UNL     1      -9.364  -2.052  21.535  0.00  0.00    +0.000 S 
ATOM     12  H   UNL     1      -8.134  -0.759  23.112  0.00  0.00    +0.000 HD
ATOM     13  H   UNL     1      -6.539  -2.744  23.550  0.00  0.00    +0.000 HD
ATOM     14  H   UNL     1      -7.023  -4.507  22.147  0.00  0.00    +0.000 HD
ATOM     15  H   UNL     1      -9.187  -4.403  21.815  0.00  0.00    +0.000 HD
BRANCH   7  16
ATOM     16  C   UNL     1      -9.052  -2.285  24.377  0.00  0.00    +0.000 C 
BRANCH  16  17
ATOM     17  C   UNL     1      -8.377  -3.575  24.902  0.00  0.00    +0.000 C 
ATOM     18  H   UNL     1      -7.511  -3.335  25.530  0.00  0.00    +0.000 HD
ATOM     19  H   UNL     1      -8.032  -4.214  24.084  0.00  0.00    +0.000 HD
ATOM     20  H   UNL     1      -9.057  -4.171  25.520  0.00  0.00    +0.000 HD
ENDBRANCH  16  17
BRANCH  16  21
ATOM     21  C   UNL     1     -10.557  -2.610  24.203  0.00  0.00    +0.000 C 
ATOM     22  H   UNL     1     -11.093  -1.769  23.746  0.00  0.00    +0.000 HD
ATOM     23  H   UNL     1     -11.044  -2.818  25.160  0.00  0.00    +0.000 HD
ATOM     24  H   UNL     1     -10.711  -3.462  23.534  0.00  0.00    +0.000 HD
ENDBRANCH  16  21
BRANCH  16  25
ATOM     25  C   UNL     1      -8.971  -1.188  25.490  0.00  0.00    +0.000 C 
ATOM     26  H   UNL     1      -8.101  -0.541  25.319  0.00  0.00    +0.000 HD
ATOM     27  H   UNL     1      -9.844  -0.526  25.401  0.00  0.00    +0.000 HD
BRANCH  25  28
ATOM     28  C   UNL     1      -8.921  -1.680  26.931  0.00  0.00    +0.000 C 
ATOM     29  H   UNL     1      -9.800  -1.311  27.474  0.00  0.00    +0.000 HD
ATOM     30  H   UNL     1      -8.034  -1.318  27.458  0.00  0.00    +0.000 HD
ATOM     31  H   UNL     1      -8.945  -2.772  26.988  0.00  0.00    +0.000 HD
ENDBRANCH  25  28
ENDBRANCH  16  25
ENDBRANCH   7  16
ENDBRANCH   1  10
BRANCH   4  32
ATOM     32  C   UNL     1      -8.072  -6.736  17.637  0.00  0.00    +0.000 C 
ATOM     33  H   UNL     1      -7.410  -7.210  18.373  0.00  0.00    +0.000 HD
ATOM     34  H   UNL     1      -7.491  -6.608  16.713  0.00  0.00    +0.000 HD
BRANCH  32  35
ATOM     35  C   UNL     1      -9.293  -7.610  17.380  0.00  0.00    +0.000 C 
ATOM     36  H   UNL     1      -9.545  -7.562  16.313  0.00  0.00    +0.000 HD
ATOM     37  H   UNL     1     -10.163  -7.215  17.918  0.00  0.00    +0.000 HD
BRANCH  35  38
ATOM     38  C   UNL     1      -9.047  -9.027  17.803  0.00  0.00    +0.000 C 
ATOM     39  C   UNL     1      -8.939 -10.107  17.019  0.00  0.00    +0.000 A 
ATOM     40  C   UNL     1      -9.000 -10.343  15.615  0.00  0.00    +0.000 A 
ATOM     41  C   UNL     1      -8.836 -11.601  15.170  0.00  0.00    +0.000 A 
ATOM     42  C   UNL     1      -8.604 -12.714  16.077  0.00  0.00    +0.000 A 
ATOM     43  C   UNL     1      -8.527 -12.579  17.413  0.00  0.00    +0.000 A 
ATOM     44  C   UNL     1      -8.693 -11.222  17.957  0.00  0.00    +0.000 A 
ATOM     45  N   UNL     1      -8.652 -10.843  19.174  0.00  0.00    +0.000 N 
ATOM     46  C   UNL     1      -8.864  -9.389  19.257  0.00  0.00    +0.000 C 
ATOM     47  H   UNL     1      -9.165  -9.523  14.922  0.00  0.00    +0.000 HD
ATOM     48  H   UNL     1      -8.868 -11.817  14.104  0.00  0.00    +0.000 HD
ATOM     49  H   UNL     1      -8.490 -13.696  15.618  0.00  0.00    +0.000 HD
ATOM     50  H   UNL     1      -8.351 -13.426  18.064  0.00  0.00    +0.000 HD
ATOM     51  H   UNL     1      -8.482 -11.485  19.945  0.00  0.00    +0.000 HD
ATOM     52  H   UNL     1      -7.969  -8.944  19.701  0.00  0.00    +0.000 HD
ATOM     53  H   UNL     1      -9.754  -9.199  19.860  0.00  0.00    +0.000 HD
ENDBRANCH  35  38
ENDBRANCH  32  35
ENDBRANCH   4  32
TORSDOF 9
ENDMDL
MODEL 3
REMARK VINA RESULT:    -9.884      1.125      1.659
REMARK INTER + INTRA:         -14.968
REMARK INTER:                 -14.317
REMARK INTRA:                  -0.651
REMARK UNBOUND:                -0.751
REMARK  Name = 
REMARK  9 active torsions:
REMARK  status: ('A' for Active; 'I' for Inactive)
REMARK    1  A    between atoms: C_1  and  C_2
REMARK    2  A    between atoms: C_2  and  C_3
REMARK    3  A    between atoms: C_3  and  C_4
REMARK    4  A    between atoms: C_3  and  C_5
REMARK    5  A    between atoms: C_3  and  C_6
REMARK    6  A    between atoms: C_9  and  N_10
REMARK    7  A    between atoms: N_13  and  C_14
REMARK    8  A    between atoms: C_14  and  C_15
REMARK    9  A    between atoms: C_15  and  C_16
REMARK                            x       y       z     vdW  Elec       q    Type
REMARK                         _______ _______ _______ _____ _____    ______ ____
ROOT
ATOM      1  N   UNL     1      -8.775  -3.879  19.564  0.00  0.00    +0.000 N 
ATOM      2  C   UNL     1      -8.479  -5.185  19.342  0.00  0.00    +0.000 C 
ATOM      3  O   UNL     1      -8.190  -5.985  20.219  0.00  0.00    +0.000 OA
ATOM      4  N   UNL     1      -8.578  -5.544  18.021  0.00  0.00    +0.000 N 
ATOM      5  H   UNL     1      -8.943  -3.219  18.826  0.00  0.00    +0.000 HD
ATOM      6  H   UNL     1      -8.500  -4.793  17.347  0.00  0.00    +0.000 HD
ENDROOT
BRANCH   1  10
ATOM      7  C   UNL     1      -8.349  -1.341  22.374  0.00  0.00    +0.000 C 
ATOM      8  N   UNL     1      -7.114  -2.109  22.130  0.00  0.00    +0.000 NA
ATOM      9  N   UNL     1      -7.359  -3.310  21.325  0.00  0.00    +0.000 NA
ATOM     10  C   UNL     1      -8.749  -3.363  20.883  0.00  0.00    +0.000 C 
ATOM     11  S   UNL     1      -9.408  -1.714  20.945  0.00  0.00    +0.000 S 
ATOM     12  H   UNL     1      -8.075  -0.282  22.302  0.00  0.00    +0.000 HD
ATOM     13  H   UNL     1      -6.561  -2.265  22.972  0.00  0.00    +0.000 HD
ATOM     14  H   UNL     1      -7.166  -4.176  21.833  0.00  0.00    +0.000 HD
ATOM     15  H   UNL     1      -9.332  -4.011  21.539  0.00  0.00    +0.000 HD
BRANCH   7  16
ATOM     16  C   UNL     1      -9.026  -1.575  23.784  0.00  0.00    +0.000 C 
BRANCH  16  17
ATOM     17  C   UNL     1      -8.750  -0.359  24.701  0.00  0.00    +0.000 C 
ATOM     18  H   UNL     1      -8.184  -0.660  25.591  0.00  0.00    +0.000 HD
ATOM     19  H   UNL     1      -9.677   0.114  25.038  0.00  0.00    +0.000 HD
ATOM     20  H   UNL     1      -8.155   0.409  24.196  0.00  0.00    +0.000 HD
ENDBRANCH  16  17
BRANCH  16  21
ATOM     21  C   UNL     1      -8.477  -2.821  24.522  0.00  0.00    +0.000 C 
ATOM     22  H   UNL     1      -7.383  -2.792  24.586  0.00  0.00    +0.000 HD
ATOM     23  H   UNL     1      -8.743  -3.750  24.010  0.00  0.00    +0.000 HD
ATOM     24  H   UNL     1      -8.836  -2.870  25.554  0.00  0.00    +0.000 HD
ENDBRANCH  16  21
BRANCH  16  25
ATOM     25  C   UNL     1     -10.574  -1.780  23.675  0.00  0.00    +0.000 C 
ATOM     26  H   UNL     1     -11.090  -0.822  23.808  0.00  0.00    +0.000 HD
ATOM     27  H   UNL     1     -10.818  -2.100  22.653  0.00  0.00    +0.000 HD
BRANCH  25  28
ATOM     28  C   UNL     1     -11.196  -2.792  24.629  0.00  0.00    +0.000 C 
ATOM     29  H   UNL     1     -11.010  -3.807  24.257  0.00  0.00    +0.000 HD
ATOM     30  H   UNL     1     -12.279  -2.667  24.711  0.00  0.00    +0.000 HD
ATOM     31  H   UNL     1     -10.756  -2.732  25.628  0.00  0.00    +0.000 HD
ENDBRANCH  25  28
ENDBRANCH  16  25
ENDBRANCH   7  16
ENDBRANCH   1  10
BRANCH   4  32
ATOM     32  C   UNL     1      -8.190  -6.886  17.668  0.00  0.00    +0.000 C 
ATOM     33  H   UNL     1      -7.525  -7.244  18.464  0.00  0.00    +0.000 HD
ATOM     34  H   UNL     1      -7.596  -6.840  16.745  0.00  0.00    +0.000 HD
BRANCH  32  35
ATOM     35  C   UNL     1      -9.370  -7.833  17.495  0.00  0.00    +0.000 C 
ATOM     36  H   UNL     1     -10.259  -7.247  17.229  0.00  0.00    +0.000 HD
ATOM     37  H   UNL     1      -9.604  -8.327  18.447  0.00  0.00    +0.000 HD
BRANCH  35  38
ATOM     38  C   UNL     1      -9.087  -8.870  16.451  0.00  0.00    +0.000 C 
ATOM     39  C   UNL     1      -8.906 -10.184  16.631  0.00  0.00    +0.000 A 
ATOM     40  C   UNL     1      -8.910 -11.056  17.758  0.00  0.00    +0.000 A 
ATOM     41  C   UNL     1      -8.689 -12.366  17.555  0.00  0.00    +0.000 A 
ATOM     42  C   UNL     1      -8.445 -12.908  16.227  0.00  0.00    +0.000 A 
ATOM     43  C   UNL     1      -8.431 -12.158  15.110  0.00  0.00    +0.000 A 
ATOM     44  C   UNL     1      -8.673 -10.716  15.272  0.00  0.00    +0.000 A 
ATOM     45  N   UNL     1      -8.717  -9.811  14.374  0.00  0.00    +0.000 N 
ATOM     46  C   UNL     1      -8.994  -8.503  14.990  0.00  0.00    +0.000 C 
ATOM     47  H   UNL     1      -9.096 -10.670  18.757  0.00  0.00    +0.000 HD
ATOM     48  H   UNL     1      -8.692 -13.063  18.391  0.00  0.00    +0.000 HD
ATOM     49  H   UNL     1      -8.271 -13.982  16.167  0.00  0.00    +0.000 HD
ATOM     50  H   UNL     1      -8.250 -12.589  14.134  0.00  0.00    +0.000 HD
ATOM     51  H   UNL     1      -8.586 -10.011  13.385  0.00  0.00    +0.000 HD
ATOM     52  H   UNL     1      -9.937  -8.133  14.579  0.00  0.00    +0.000 HD
ATOM     53  H   UNL     1      -8.164  -7.830  14.769  0.00  0.00    +0.000 HD
ENDBRANCH  35  38
ENDBRANCH  32  35
ENDBRANCH   4  32
TORSDOF 9
ENDMDL
MODEL 4
REMARK VINA RESULT:    -9.370      1.444      1.910
REMARK INTER + INTRA:         -14.230
REMARK INTER:                 -14.222
REMARK INTRA:                  -0.008
REMARK UNBOUND:                -0.751
REMARK  Name = 
REMARK  9 active torsions:
REMARK  status: ('A' for Active; 'I' for Inactive)
REMARK    1  A    between atoms: C_1  and  C_2
REMARK    2  A    between atoms: C_2  and  C_3
REMARK    3  A    between atoms: C_3  and  C_4
REMARK    4  A    between atoms: C_3  and  C_5
REMARK    5  A    between atoms: C_3  and  C_6
REMARK    6  A    between atoms: C_9  and  N_10
REMARK    7  A    between atoms: N_13  and  C_14
REMARK    8  A    between atoms: C_14  and  C_15
REMARK    9  A    between atoms: C_15  and  C_16
REMARK                            x       y       z     vdW  Elec       q    Type
REMARK                         _______ _______ _______ _____ _____    ______ ____
ROOT
ATOM      1  N   UNL     1      -7.794  -4.739  21.093  0.00  0.00    +0.000 N 
ATOM      2  C   UNL     1      -8.122  -5.010  19.803  0.00  0.00    +0.000 C 
ATOM      3  O   UNL     1      -8.699  -4.232  19.060  0.00  0.00    +0.000 OA
ATOM      4  N   UNL     1      -7.697  -6.248  19.389  0.00  0.00    +0.000 N 
ATOM      5  H   UNL     1      -7.381  -5.414  21.710  0.00  0.00    +0.000 HD
ATOM      6  H   UNL     1      -7.530  -6.930  20.117  0.00  0.00    +0.000 HD
ENDROOT
BRANCH   1  10
ATOM      7  C   UNL     1      -9.509  -2.235  23.397  0.00  0.00    +0.000 C 
ATOM      8  N   UNL     1     -10.238  -2.407  22.126  0.00  0.00    +0.000 NA
ATOM      9  N   UNL     1      -9.420  -3.069  21.104  0.00  0.00    +0.000 NA
ATOM     10  C   UNL     1      -8.136  -3.485  21.658  0.00  0.00    +0.000 C 
ATOM     11  S   UNL     1      -8.310  -3.600  23.423  0.00  0.00    +0.000 S 
ATOM     12  H   UNL     1     -10.233  -2.428  24.197  0.00  0.00    +0.000 HD
ATOM     13  H   UNL     1     -10.709  -1.560  21.811  0.00  0.00    +0.000 HD
ATOM     14  H   UNL     1      -9.227  -2.470  20.299  0.00  0.00    +0.000 HD
ATOM     15  H   UNL     1      -7.364  -2.754  21.418  0.00  0.00    +0.000 HD
BRANCH   7  16
ATOM     16  C   UNL     1      -8.890  -0.799  23.635  0.00  0.00    +0.000 C 
BRANCH  16  17
ATOM     17  C   UNL     1      -9.654   0.245  22.784  0.00  0.00    +0.000 C 
ATOM     18  H   UNL     1      -9.388   0.156  21.724  0.00  0.00    +0.000 HD
ATOM     19  H   UNL     1      -9.432   1.267  23.102  0.00  0.00    +0.000 HD
ATOM     20  H   UNL     1     -10.739   0.109  22.847  0.00  0.00    +0.000 HD
ENDBRANCH  16  17
BRANCH  16  21
ATOM     21  C   UNL     1      -7.401  -0.704  23.221  0.00  0.00    +0.000 C 
ATOM     22  H   UNL     1      -7.298  -0.332  22.194  0.00  0.00    +0.000 HD
ATOM     23  H   UNL     1      -6.902  -1.676  23.261  0.00  0.00    +0.000 HD
ATOM     24  H   UNL     1      -6.851   0.002  23.850  0.00  0.00    +0.000 HD
ENDBRANCH  16  21
BRANCH  16  25
ATOM     25  C   UNL     1      -8.953  -0.365  25.137  0.00  0.00    +0.000 C 
ATOM     26  H   UNL     1      -9.890  -0.712  25.590  0.00  0.00    +0.000 HD
ATOM     27  H   UNL     1      -8.157  -0.883  25.690  0.00  0.00    +0.000 HD
BRANCH  25  28
ATOM     28  C   UNL     1      -8.810   1.125  25.423  0.00  0.00    +0.000 C 
ATOM     29  H   UNL     1      -9.093   1.325  26.464  0.00  0.00    +0.000 HD
ATOM     30  H   UNL     1      -9.458   1.729  24.785  0.00  0.00    +0.000 HD
ATOM     31  H   UNL     1      -7.777   1.464  25.302  0.00  0.00    +0.000 HD
ENDBRANCH  25  28
ENDBRANCH  16  25
ENDBRANCH   7  16
ENDBRANCH   1  10
BRANCH   4  32
ATOM     32  C   UNL     1      -8.080  -6.671  18.066  0.00  0.00    +0.000 C 
ATOM     33  H   UNL     1      -7.239  -7.245  17.659  0.00  0.00    +0.000 HD
ATOM     34  H   UNL     1      -8.196  -5.776  17.439  0.00  0.00    +0.000 HD
BRANCH  32  35
ATOM     35  C   UNL     1      -9.355  -7.504  18.041  0.00  0.00    +0.000 C 
ATOM     36  H   UNL     1      -9.898  -7.294  17.111  0.00  0.00    +0.000 HD
ATOM     37  H   UNL     1     -10.022  -7.204  18.858  0.00  0.00    +0.000 HD
BRANCH  35  38
ATOM     38  C   UNL     1      -9.051  -8.967  18.157  0.00  0.00    +0.000 C 
ATOM     39  C   UNL     1      -9.021  -9.876  17.175  0.00  0.00    +0.000 A 
ATOM     40  C   UNL     1      -9.234  -9.846  15.767  0.00  0.00    +0.000 A 
ATOM     41  C   UNL     1      -9.109 -10.992  15.075  0.00  0.00    +0.000 A 
ATOM     42  C   UNL     1      -8.768 -12.249  15.723  0.00  0.00    +0.000 A 
ATOM     43  C   UNL     1      -8.545 -12.366  17.044  0.00  0.00    +0.000 A 
ATOM     44  C   UNL     1      -8.662 -11.141  17.852  0.00  0.00    +0.000 A 
ATOM     45  N   UNL     1      -8.490 -10.996  19.107  0.00  0.00    +0.000 N 
ATOM     46  C   UNL     1      -8.705  -9.591  19.487  0.00  0.00    +0.000 C 
ATOM     47  H   UNL     1      -9.483  -8.915  15.264  0.00  0.00    +0.000 HD
ATOM     48  H   UNL     1      -9.257 -11.005  13.996  0.00  0.00    +0.000 HD
ATOM     49  H   UNL     1      -8.697 -13.122  15.077  0.00  0.00    +0.000 HD
ATOM     50  H   UNL     1      -8.290 -13.313  17.499  0.00  0.00    +0.000 HD
ATOM     51  H   UNL     1      -8.230 -11.767  19.719  0.00  0.00    +0.000 HD
ATOM     52  H   UNL     1      -7.771  -9.211  19.910  0.00  0.00    +0.000 HD
ATOM     53  H   UNL     1      -9.524  -9.545  20.207  0.00  0.00    +0.000 HD
ENDBRANCH  35  38
ENDBRANCH  32  35
ENDBRANCH   4  32
TORSDOF 9
ENDMDL
MODEL 5
REMARK VINA RESULT:    -9.163      5.213      7.309
REMARK INTER + INTRA:         -13.931
REMARK INTER:                 -13.785
REMARK INTRA:                  -0.145
REMARK UNBOUND:                -0.751
REMARK  Name = 
REMARK  9 active torsions:
REMARK  status: ('A' for Active; 'I' for Inactive)
REMARK    1  A    between atoms: C_1  and  C_2
REMARK    2  A    between atoms: C_2  and  C_3
REMARK    3  A    between atoms: C_3  and  C_4
REMARK    4  A    between atoms: C_3  and  C_5
REMARK    5  A    between atoms: C_3  and  C_6
REMARK    6  A    between atoms: C_9  and  N_10
REMARK    7  A    between atoms: N_13  and  C_14
REMARK    8  A    between atoms: C_14  and  C_15
REMARK    9  A    between atoms: C_15  and  C_16
REMARK                            x       y       z     vdW  Elec       q    Type
REMARK                         _______ _______ _______ _____ _____    ______ ____
ROOT
ATOM      1  N   UNL     1      -8.960  -4.626  14.316  0.00  0.00    +0.000 N 
ATOM      2  C   UNL     1      -9.472  -5.452  15.264  0.00  0.00    +0.000 C 
ATOM      3  O   UNL     1     -10.666  -5.596  15.482  0.00  0.00    +0.000 OA
ATOM      4  N   UNL     1      -8.509  -6.159  15.940  0.00  0.00    +0.000 N 
ATOM      5  H   UNL     1      -7.976  -4.468  14.197  0.00  0.00    +0.000 HD
ATOM      6  H   UNL     1      -7.578  -5.763  15.936  0.00  0.00    +0.000 HD
ENDROOT
BRANCH   1  10
ATOM      7  C   UNL     1     -12.138  -2.810  13.257  0.00  0.00    +0.000 C 
ATOM      8  N   UNL     1     -12.083  -4.185  12.726  0.00  0.00    +0.000 NA
ATOM      9  N   UNL     1     -10.736  -4.759  12.813  0.00  0.00    +0.000 NA
ATOM     10  C   UNL     1      -9.830  -3.852  13.511  0.00  0.00    +0.000 C 
ATOM     11  S   UNL     1     -10.812  -2.747  14.498  0.00  0.00    +0.000 S 
ATOM     12  H   UNL     1     -13.088  -2.724  13.797  0.00  0.00    +0.000 HD
ATOM     13  H   UNL     1     -12.531  -4.286  11.817  0.00  0.00    +0.000 HD
ATOM     14  H   UNL     1     -10.327  -4.956  11.897  0.00  0.00    +0.000 HD
ATOM     15  H   UNL     1      -9.246  -3.273  12.794  0.00  0.00    +0.000 HD
BRANCH   7  16
ATOM     16  C   UNL     1     -12.089  -1.661  12.171  0.00  0.00    +0.000 C 
BRANCH  16  17
ATOM     17  C   UNL     1     -11.114  -0.551  12.631  0.00  0.00    +0.000 C 
ATOM     18  H   UNL     1     -10.324  -0.391  11.888  0.00  0.00    +0.000 HD
ATOM     19  H   UNL     1     -10.635  -0.800  13.583  0.00  0.00    +0.000 HD
ATOM     20  H   UNL     1     -11.621   0.411  12.761  0.00  0.00    +0.000 HD
ENDBRANCH  16  17
BRANCH  16  21
ATOM     21  C   UNL     1     -13.462  -0.981  11.945  0.00  0.00    +0.000 C 
ATOM     22  H   UNL     1     -14.119  -1.611  11.333  0.00  0.00    +0.000 HD
ATOM     23  H   UNL     1     -13.364  -0.023  11.425  0.00  0.00    +0.000 HD
ATOM     24  H   UNL     1     -13.994  -0.821  12.887  0.00  0.00    +0.000 HD
ENDBRANCH  16  21
BRANCH  16  25
ATOM     25  C   UNL     1     -11.627  -2.185  10.770  0.00  0.00    +0.000 C 
ATOM     26  H   UNL     1     -11.736  -3.275  10.722  0.00  0.00    +0.000 HD
ATOM     27  H   UNL     1     -12.309  -1.792  10.002  0.00  0.00    +0.000 HD
BRANCH  25  28
ATOM     28  C   UNL     1     -10.209  -1.829  10.342  0.00  0.00    +0.000 C 
ATOM     29  H   UNL     1      -9.493  -2.430  10.917  0.00  0.00    +0.000 HD
ATOM     30  H   UNL     1      -9.976  -0.778  10.526  0.00  0.00    +0.000 HD
ATOM     31  H   UNL     1     -10.036  -2.051   9.286  0.00  0.00    +0.000 HD
ENDBRANCH  25  28
ENDBRANCH  16  25
ENDBRANCH   7  16
ENDBRANCH   1  10
BRANCH   4  32
ATOM     32  C   UNL     1      -8.944  -6.992  17.033  0.00  0.00    +0.000 C 
ATOM     33  H   UNL     1      -9.523  -6.351  17.710  0.00  0.00    +0.000 HD
ATOM     34  H   UNL     1      -8.056  -7.328  17.584  0.00  0.00    +0.000 HD
BRANCH  32  35
ATOM     35  C   UNL     1      -9.778  -8.187  16.590  0.00  0.00    +0.000 C 
ATOM     36  H   UNL     1      -9.718  -8.277  15.498  0.00  0.00    +0.000 HD
ATOM     37  H   UNL     1     -10.837  -8.020  16.824  0.00  0.00    +0.000 HD
BRANCH  35  38
ATOM     38  C   UNL     1      -9.314  -9.450  17.251  0.00  0.00    +0.000 C 
ATOM     39  C   UNL     1      -9.075 -10.634  16.675  0.00  0.00    +0.000 A 
ATOM     40  C   UNL     1      -9.146 -11.140  15.345  0.00  0.00    +0.000 A 
ATOM     41  C   UNL     1      -8.815 -12.425  15.129  0.00  0.00    +0.000 A 
ATOM     42  C   UNL     1      -8.393 -13.302  16.211  0.00  0.00    +0.000 A 
ATOM     43  C   UNL     1      -8.293 -12.905  17.492  0.00  0.00    +0.000 A 
ATOM     44  C   UNL     1      -8.638 -11.505  17.786  0.00  0.00    +0.000 A 
ATOM     45  N   UNL     1      -8.613 -10.899  18.907  0.00  0.00    +0.000 N 
ATOM     46  C   UNL     1      -9.033  -9.499  18.733  0.00  0.00    +0.000 C 
ATOM     47  H   UNL     1      -9.452 -10.498  14.523  0.00  0.00    +0.000 HD
ATOM     48  H   UNL     1      -8.850 -12.844  14.125  0.00  0.00    +0.000 HD
ATOM     49  H   UNL     1      -8.152 -14.328  15.935  0.00  0.00    +0.000 HD
ATOM     50  H   UNL     1      -7.974 -13.579  18.276  0.00  0.00    +0.000 HD
ATOM     51  H   UNL     1      -8.326 -11.352  19.772  0.00  0.00    +0.000 HD
ATOM     52  H   UNL     1      -8.199  -8.859  19.034  0.00  0.00    +0.000 HD
ATOM     53  H   UNL     1      -9.921  -9.321  19.343  0.00  0.00    +0.000 HD
ENDBRANCH  35  38
ENDBRANCH  32  35
ENDBRANCH   4  32
TORSDOF 9
ENDMDL
MODEL 6
REMARK VINA RESULT:    -9.070      5.386      6.041
REMARK INTER + INTRA:         -13.798
REMARK INTER:                 -13.158
REMARK INTRA:                  -0.640
REMARK UNBOUND:                -0.751
REMARK  Name = 
REMARK  9 active torsions:
REMARK  status: ('A' for Active; 'I' for Inactive)
REMARK    1  A    between atoms: C_1  and  C_2
REMARK    2  A    between atoms: C_2  and  C_3
REMARK    3  A    between atoms: C_3  and  C_4
REMARK    4  A    between atoms: C_3  and  C_5
REMARK    5  A    between atoms: C_3  and  C_6
REMARK    6  A    between atoms: C_9  and  N_10
REMARK    7  A    between atoms: N_13  and  C_14
REMARK    8  A    between atoms: C_14  and  C_15
REMARK    9  A    between atoms: C_15  and  C_16
REMARK                            x       y       z     vdW  Elec       q    Type
REMARK                         _______ _______ _______ _____ _____    ______ ____
ROOT
ATOM      1  N   UNL     1     -11.434  -5.212  15.021  0.00  0.00    +0.000 N 
ATOM      2  C   UNL     1     -11.028  -5.847  16.150  0.00  0.00    +0.000 C 
ATOM      3  O   UNL     1     -10.584  -5.282  17.137  0.00  0.00    +0.000 OA
ATOM      4  N   UNL     1     -11.207  -7.207  16.097  0.00  0.00    +0.000 N 
ATOM      5  H   UNL     1     -11.732  -5.695  14.193  0.00  0.00    +0.000 HD
ATOM      6  H   UNL     1     -11.265  -7.614  15.172  0.00  0.00    +0.000 HD
ENDROOT
BRANCH   1  10
ATOM      7  C   UNL     1     -10.706  -1.789  13.513  0.00  0.00    +0.000 C 
ATOM      8  N   UNL     1      -9.569  -2.299  14.302  0.00  0.00    +0.000 NA
ATOM      9  N   UNL     1      -9.955  -3.416  15.170  0.00  0.00    +0.000 NA
ATOM     10  C   UNL     1     -11.343  -3.800  14.934  0.00  0.00    +0.000 C 
ATOM     11  S   UNL     1     -11.806  -3.222  13.318  0.00  0.00    +0.000 S 
ATOM     12  H   UNL     1     -10.310  -1.550  12.519  0.00  0.00    +0.000 HD
ATOM     13  H   UNL     1      -9.036  -1.564  14.766  0.00  0.00    +0.000 HD
ATOM     14  H   UNL     1      -9.863  -3.199  16.165  0.00  0.00    +0.000 HD
ATOM     15  H   UNL     1     -11.996  -3.346  15.681  0.00  0.00    +0.000 HD
BRANCH   7  16
ATOM     16  C   UNL     1     -11.400  -0.488  14.086  0.00  0.00    +0.000 C 
BRANCH  16  17
ATOM     17  C   UNL     1     -11.178   0.693  13.110  0.00  0.00    +0.000 C 
ATOM     18  H   UNL     1     -10.498   0.408  12.299  0.00  0.00    +0.000 HD
ATOM     19  H   UNL     1     -10.750   1.562  13.617  0.00  0.00    +0.000 HD
ATOM     20  H   UNL     1     -12.112   1.015  12.637  0.00  0.00    +0.000 HD
ENDBRANCH  16  17
BRANCH  16  21
ATOM     21  C   UNL     1     -10.828  -0.047  15.455  0.00  0.00    +0.000 C 
ATOM     22  H   UNL     1     -11.457   0.725  15.917  0.00  0.00    +0.000 HD
ATOM     23  H   UNL     1      -9.823   0.374  15.363  0.00  0.00    +0.000 HD
ATOM     24  H   UNL     1     -10.801  -0.876  16.168  0.00  0.00    +0.000 HD
ENDBRANCH  16  21
BRANCH  16  25
ATOM     25  C   UNL     1     -12.939  -0.679  14.299  0.00  0.00    +0.000 C 
ATOM     26  H   UNL     1     -13.493   0.090  13.748  0.00  0.00    +0.000 HD
ATOM     27  H   UNL     1     -13.244  -1.634  13.847  0.00  0.00    +0.000 HD
BRANCH  25  28
ATOM     28  C   UNL     1     -13.433  -0.681  15.740  0.00  0.00    +0.000 C 
ATOM     29  H   UNL     1     -14.522  -0.551  15.752  0.00  0.00    +0.000 HD
ATOM     30  H   UNL     1     -12.999   0.134  16.324  0.00  0.00    +0.000 HD
ATOM     31  H   UNL     1     -13.219  -1.629  16.241  0.00  0.00    +0.000 HD
ENDBRANCH  25  28
ENDBRANCH  16  25
ENDBRANCH   7  16
ENDBRANCH   1  10
BRANCH   4  32
ATOM     32  C   UNL     1     -10.718  -7.983  17.208  0.00  0.00    +0.000 C 
ATOM     33  H   UNL     1     -11.334  -8.890  17.259  0.00  0.00    +0.000 HD
ATOM     34  H   UNL     1     -10.900  -7.414  18.130  0.00  0.00    +0.000 HD
BRANCH  32  35
ATOM     35  C   UNL     1      -9.243  -8.347  17.091  0.00  0.00    +0.000 C 
ATOM     36  H   UNL     1      -8.654  -7.638  17.686  0.00  0.00    +0.000 HD
ATOM     37  H   UNL     1      -8.904  -8.231  16.054  0.00  0.00    +0.000 HD
BRANCH  35  38
ATOM     38  C   UNL     1      -8.993  -9.754  17.544  0.00  0.00    +0.000 C 
ATOM     39  C   UNL     1      -8.884 -10.850  16.784  0.00  0.00    +0.000 A 
ATOM     40  C   UNL     1      -8.946 -11.116  15.385  0.00  0.00    +0.000 A 
ATOM     41  C   UNL     1      -8.779 -12.383  14.966  0.00  0.00    +0.000 A 
ATOM     42  C   UNL     1      -8.543 -13.476  15.897  0.00  0.00    +0.000 A 
ATOM     43  C   UNL     1      -8.464 -13.312  17.230  0.00  0.00    +0.000 A 
ATOM     44  C   UNL     1      -8.633 -11.944  17.745  0.00  0.00    +0.000 A 
ATOM     45  N   UNL     1      -8.591 -11.538  18.953  0.00  0.00    +0.000 N 
ATOM     46  C   UNL     1      -8.807 -10.084  19.005  0.00  0.00    +0.000 C 
ATOM     47  H   UNL     1      -9.114 -10.312  14.675  0.00  0.00    +0.000 HD
ATOM     48  H   UNL     1      -8.812 -12.623  13.905  0.00  0.00    +0.000 HD
ATOM     49  H   UNL     1      -8.427 -14.467  15.460  0.00  0.00    +0.000 HD
ATOM     50  H   UNL     1      -8.284 -14.144  17.898  0.00  0.00    +0.000 HD
ATOM     51  H   UNL     1      -8.418 -12.163  19.738  0.00  0.00    +0.000 HD
ATOM     52  H   UNL     1      -7.913  -9.627  19.438  0.00  0.00    +0.000 HD
ATOM     53  H   UNL     1      -9.696  -9.883  19.605  0.00  0.00    +0.000 HD
ENDBRANCH  35  38
ENDBRANCH  32  35
ENDBRANCH   4  32
TORSDOF 9
ENDMDL
MODEL 7
REMARK VINA RESULT:    -8.876      2.535      9.634
REMARK INTER + INTRA:         -13.519
REMARK INTER:                 -13.065
REMARK INTRA:                  -0.454
REMARK UNBOUND:                -0.751
REMARK  Name = 
REMARK  9 active torsions:
REMARK  status: ('A' for Active; 'I' for Inactive)
REMARK    1  A    between atoms: C_1  and  C_2
REMARK    2  A    between atoms: C_2  and  C_3
REMARK    3  A    between atoms: C_3  and  C_4
REMARK    4  A    between atoms: C_3  and  C_5
REMARK    5  A    between atoms: C_3  and  C_6
REMARK    6  A    between atoms: C_9  and  N_10
REMARK    7  A    between atoms: N_13  and  C_14
REMARK    8  A    between atoms: C_14  and  C_15
REMARK    9  A    between atoms: C_15  and  C_16
REMARK                            x       y       z     vdW  Elec       q    Type
REMARK                         _______ _______ _______ _____ _____    ______ ____
ROOT
ATOM      1  N   UNL     1     -11.458  -6.387  18.151  0.00  0.00    +0.000 N 
ATOM      2  C   UNL     1     -10.915  -5.144  18.094  0.00  0.00    +0.000 C 
ATOM      3  O   UNL     1     -10.020  -4.816  17.330  0.00  0.00    +0.000 OA
ATOM      4  N   UNL     1     -11.505  -4.258  18.961  0.00  0.00    +0.000 N 
ATOM      5  H   UNL     1     -12.145  -6.657  18.831  0.00  0.00    +0.000 HD
ATOM      6  H   UNL     1     -11.985  -4.662  19.754  0.00  0.00    +0.000 HD
ENDROOT
BRANCH   1  10
ATOM      7  C   UNL     1      -8.977  -8.399  16.073  0.00  0.00    +0.000 C 
ATOM      8  N   UNL     1      -9.672  -7.377  15.268  0.00  0.00    +0.000 NA
ATOM      9  N   UNL     1     -10.863  -6.854  15.947  0.00  0.00    +0.000 NA
ATOM     10  C   UNL     1     -10.977  -7.406  17.292  0.00  0.00    +0.000 C 
ATOM     11  S   UNL     1      -9.367  -7.967  17.794  0.00  0.00    +0.000 S 
ATOM     12  H   UNL     1      -7.904  -8.226  15.934  0.00  0.00    +0.000 HD
ATOM     13  H   UNL     1      -9.822  -7.656  14.300  0.00  0.00    +0.000 HD
ATOM     14  H   UNL     1     -11.731  -7.071  15.452  0.00  0.00    +0.000 HD
ATOM     15  H   UNL     1     -11.672  -8.247  17.300  0.00  0.00    +0.000 HD
BRANCH   7  16
ATOM     16  C   UNL     1      -9.284  -9.899  15.676  0.00  0.00    +0.000 C 
BRANCH  16  17
ATOM     17  C   UNL     1      -8.018 -10.545  15.063  0.00  0.00    +0.000 C 
ATOM     18  H   UNL     1      -7.167  -9.854  15.106  0.00  0.00    +0.000 HD
ATOM     19  H   UNL     1      -8.171 -10.825  14.018  0.00  0.00    +0.000 HD
ATOM     20  H   UNL     1      -7.716 -11.447  15.605  0.00  0.00    +0.000 HD
ENDBRANCH  16  17
BRANCH  16  21
ATOM     21  C   UNL     1     -10.406 -10.029  14.616  0.00  0.00    +0.000 C 
ATOM     22  H   UNL     1     -10.714  -9.045  14.243  0.00  0.00    +0.000 HD
ATOM     23  H   UNL     1     -11.300 -10.511  15.023  0.00  0.00    +0.000 HD
ATOM     24  H   UNL     1     -10.070 -10.589  13.739  0.00  0.00    +0.000 HD
ENDBRANCH  16  21
BRANCH  16  25
ATOM     25  C   UNL     1      -9.742 -10.758  16.902  0.00  0.00    +0.000 C 
ATOM     26  H   UNL     1     -10.043 -10.102  17.728  0.00  0.00    +0.000 HD
ATOM     27  H   UNL     1     -10.651 -11.312  16.627  0.00  0.00    +0.000 HD
BRANCH  25  28
ATOM     28  C   UNL     1      -8.738 -11.770  17.439  0.00  0.00    +0.000 C 
ATOM     29  H   UNL     1      -8.810 -11.810  18.533  0.00  0.00    +0.000 HD
ATOM     30  H   UNL     1      -7.709 -11.500  17.188  0.00  0.00    +0.000 HD
ATOM     31  H   UNL     1      -8.940 -12.778  17.068  0.00  0.00    +0.000 HD
ENDBRANCH  25  28
ENDBRANCH  16  25
ENDBRANCH   7  16
ENDBRANCH   1  10
BRANCH   4  32
ATOM     32  C   UNL     1     -10.935  -2.937  19.047  0.00  0.00    +0.000 C 
ATOM     33  H   UNL     1     -11.174  -2.426  18.105  0.00  0.00    +0.000 HD
ATOM     34  H   UNL     1      -9.843  -3.036  19.094  0.00  0.00    +0.000 HD
BRANCH  32  35
ATOM     35  C   UNL     1     -11.448  -2.131  20.233  0.00  0.00    +0.000 C 
ATOM     36  H   UNL     1     -12.205  -2.723  20.764  0.00  0.00    +0.000 HD
ATOM     37  H   UNL     1     -11.959  -1.224  19.885  0.00  0.00    +0.000 HD
BRANCH  35  38
ATOM     38  C   UNL     1     -10.331  -1.751  21.157  0.00  0.00    +0.000 C 
ATOM     39  C   UNL     1     -10.282  -1.901  22.486  0.00  0.00    +0.000 A 
ATOM     40  C   UNL     1     -11.163  -2.428  23.473  0.00  0.00    +0.000 A 
ATOM     41  C   UNL     1     -10.764  -2.422  24.757  0.00  0.00    +0.000 A 
ATOM     42  C   UNL     1      -9.470  -1.892  25.158  0.00  0.00    +0.000 A 
ATOM     43  C   UNL     1      -8.576  -1.382  24.292  0.00  0.00    +0.000 A 
ATOM     44  C   UNL     1      -8.957  -1.369  22.871  0.00  0.00    +0.000 A 
ATOM     45  N   UNL     1      -8.285  -0.950  21.871  0.00  0.00    +0.000 N 
ATOM     46  C   UNL     1      -9.056  -1.138  20.631  0.00  0.00    +0.000 C 
ATOM     47  H   UNL     1     -12.131  -2.835  23.192  0.00  0.00    +0.000 HD
ATOM     48  H   UNL     1     -11.408  -2.823  25.538  0.00  0.00    +0.000 HD
ATOM     49  H   UNL     1      -9.243  -1.925  26.223  0.00  0.00    +0.000 HD
ATOM     50  H   UNL     1      -7.620  -0.996  24.618  0.00  0.00    +0.000 HD
ATOM     51  H   UNL     1      -7.349  -0.562  21.961  0.00  0.00    +0.000 HD
ATOM     52  H   UNL     1      -8.490  -1.812  19.983  0.00  0.00    +0.000 HD
ATOM     53  H   UNL     1      -9.210  -0.163  20.165  0.00  0.00    +0.000 HD
ENDBRANCH  35  38
ENDBRANCH  32  35
ENDBRANCH   4  32
TORSDOF 9
ENDMDL
MODEL 8
REMARK VINA RESULT:    -8.837      1.776      2.543
REMARK INTER + INTRA:         -13.462
REMARK INTER:                 -12.823
REMARK INTRA:                  -0.639
REMARK UNBOUND:                -0.751
REMARK  Name = 
REMARK  9 active torsions:
REMARK  status: ('A' for Active; 'I' for Inactive)
REMARK    1  A    between atoms: C_1  and  C_2
REMARK    2  A    between atoms: C_2  and  C_3
REMARK    3  A    between atoms: C_3  and  C_4
REMARK    4  A    between atoms: C_3  and  C_5
REMARK    5  A    between atoms: C_3  and  C_6
REMARK    6  A    between atoms: C_9  and  N_10
REMARK    7  A    between atoms: N_13  and  C_14
REMARK    8  A    between atoms: C_14  and  C_15
REMARK    9  A    between atoms: C_15  and  C_16
REMARK                            x       y       z     vdW  Elec       q    Type
REMARK                         _______ _______ _______ _____ _____    ______ ____
ROOT
ATOM      1  N   UNL     1     -10.038  -3.665  18.853  0.00  0.00    +0.000 N 
ATOM      2  C   UNL     1      -9.272  -4.783  18.792  0.00  0.00    +0.000 C 
ATOM      3  O   UNL     1      -8.482  -5.126  19.658  0.00  0.00    +0.000 OA
ATOM      4  N   UNL     1      -9.502  -5.534  17.666  0.00  0.00    +0.000 N 
ATOM      5  H   UNL     1     -10.632  -3.362  18.102  0.00  0.00    +0.000 HD
ATOM      6  H   UNL     1      -9.905  -5.044  16.877  0.00  0.00    +0.000 HD
ENDROOT
BRANCH   1  10
ATOM      7  C   UNL     1     -10.142  -0.425  20.855  0.00  0.00    +0.000 C 
ATOM      8  N   UNL     1      -8.788  -0.720  20.351  0.00  0.00    +0.000 NA
ATOM      9  N   UNL     1      -8.655  -2.111  19.904  0.00  0.00    +0.000 NA
ATOM     10  C   UNL     1      -9.939  -2.802  19.972  0.00  0.00    +0.000 C 
ATOM     11  S   UNL     1     -11.225  -1.575  19.957  0.00  0.00    +0.000 S 
ATOM     12  H   UNL     1     -10.389   0.585  20.508  0.00  0.00    +0.000 HD
ATOM     13  H   UNL     1      -8.046  -0.399  20.971  0.00  0.00    +0.000 HD
ATOM     14  H   UNL     1      -7.988  -2.647  20.463  0.00  0.00    +0.000 HD
ATOM     15  H   UNL     1     -10.007  -3.386  20.890  0.00  0.00    +0.000 HD
BRANCH   7  16
ATOM     16  C   UNL     1     -10.301  -0.451  22.429  0.00  0.00    +0.000 C 
BRANCH  16  17
ATOM     17  C   UNL     1     -11.405  -1.461  22.824  0.00  0.00    +0.000 C 
ATOM     18  H   UNL     1     -11.728  -2.048  21.955  0.00  0.00    +0.000 HD
ATOM     19  H   UNL     1     -12.285  -0.959  23.236  0.00  0.00    +0.000 HD
ATOM     20  H   UNL     1     -11.055  -2.179  23.573  0.00  0.00    +0.000 HD
ENDBRANCH  16  17
BRANCH  16  21
ATOM     21  C   UNL     1     -10.720   0.918  23.020  0.00  0.00    +0.000 C 
ATOM     22  H   UNL     1     -10.215   1.743  22.502  0.00  0.00    +0.000 HD
ATOM     23  H   UNL     1     -10.464   1.002  24.080  0.00  0.00    +0.000 HD
ATOM     24  H   UNL     1     -11.791   1.100  22.898  0.00  0.00    +0.000 HD
ENDBRANCH  16  21
BRANCH  16  25
ATOM     25  C   UNL     1      -8.973  -0.850  23.155  0.00  0.00    +0.000 C 
ATOM     26  H   UNL     1      -9.112  -1.792  23.700  0.00  0.00    +0.000 HD
ATOM     27  H   UNL     1      -8.206  -1.065  22.398  0.00  0.00    +0.000 HD
BRANCH  25  28
ATOM     28  C   UNL     1      -8.387   0.175  24.118  0.00  0.00    +0.000 C 
ATOM     29  H   UNL     1      -9.176   0.538  24.788  0.00  0.00    +0.000 HD
ATOM     30  H   UNL     1      -7.976   1.041  23.595  0.00  0.00    +0.000 HD
ATOM     31  H   UNL     1      -7.608  -0.261  24.749  0.00  0.00    +0.000 HD
ENDBRANCH  25  28
ENDBRANCH  16  25
ENDBRANCH   7  16
ENDBRANCH   1  10
BRANCH   4  32
ATOM     32  C   UNL     1      -8.669  -6.692  17.460  0.00  0.00    +0.000 C 
ATOM     33  H   UNL     1      -7.835  -6.614  18.169  0.00  0.00    +0.000 HD
ATOM     34  H   UNL     1      -8.243  -6.633  16.449  0.00  0.00    +0.000 HD
BRANCH  32  35
ATOM     35  C   UNL     1      -9.406  -8.011  17.650  0.00  0.00    +0.000 C 
ATOM     36  H   UNL     1     -10.483  -7.810  17.715  0.00  0.00    +0.000 HD
ATOM     37  H   UNL     1      -9.124  -8.470  18.605  0.00  0.00    +0.000 HD
BRANCH  35  38
ATOM     38  C   UNL     1      -9.113  -8.965  16.531  0.00  0.00    +0.000 C 
ATOM     39  C   UNL     1      -8.905 -10.284  16.615  0.00  0.00    +0.000 A 
ATOM     40  C   UNL     1      -8.883 -11.235  17.676  0.00  0.00    +0.000 A 
ATOM     41  C   UNL     1      -8.640 -12.523  17.377  0.00  0.00    +0.000 A 
ATOM     42  C   UNL     1      -8.397 -12.963  16.012  0.00  0.00    +0.000 A 
ATOM     43  C   UNL     1      -8.406 -12.134  14.952  0.00  0.00    +0.000 A 
ATOM     44  C   UNL     1      -8.674 -10.712  15.220  0.00  0.00    +0.000 A 
ATOM     45  N   UNL     1      -8.742  -9.746  14.390  0.00  0.00    +0.000 N 
ATOM     46  C   UNL     1      -9.038  -8.492  15.100  0.00  0.00    +0.000 C 
ATOM     47  H   UNL     1      -9.069 -10.926  18.701  0.00  0.00    +0.000 HD
ATOM     48  H   UNL     1      -8.623 -13.278  18.161  0.00  0.00    +0.000 HD
ATOM     49  H   UNL     1      -8.203 -14.026  15.874  0.00  0.00    +0.000 HD
ATOM     50  H   UNL     1      -8.224 -12.490  13.947  0.00  0.00    +0.000 HD
ATOM     51  H   UNL     1      -8.615  -9.872  13.388  0.00  0.00    +0.000 HD
ATOM     52  H   UNL     1      -9.992  -8.111  14.723  0.00  0.00    +0.000 HD
ATOM     53  H   UNL     1      -8.222  -7.789  14.923  0.00  0.00    +0.000 HD
ENDBRANCH  35  38
ENDBRANCH  32  35
ENDBRANCH   4  32
TORSDOF 9
ENDMDL
MODEL 9
REMARK VINA RESULT:    -8.535      2.588      9.255
REMARK INTER + INTRA:         -13.029
REMARK INTER:                 -12.238
REMARK INTRA:                  -0.791
REMARK UNBOUND:                -0.751
REMARK  Name = 
REMARK  9 active torsions:
REMARK  status: ('A' for Active; 'I' for Inactive)
REMARK    1  A    between atoms: C_1  and  C_2
REMARK    2  A    between atoms: C_2  and  C_3
REMARK    3  A    between atoms: C_3  and  C_4
REMARK    4  A    between atoms: C_3  and  C_5
REMARK    5  A    between atoms: C_3  and  C_6
REMARK    6  A    between atoms: C_9  and  N_10
REMARK    7  A    between atoms: N_13  and  C_14
REMARK    8  A    between atoms: C_14  and  C_15
REMARK    9  A    between atoms: C_15  and  C_16
REMARK                            x       y       z     vdW  Elec       q    Type
REMARK                         _______ _______ _______ _____ _____    ______ ____
ROOT
ATOM      1  N   UNL     1     -10.371  -3.589  17.853  0.00  0.00    +0.000 N 
ATOM      2  C   UNL     1      -9.647  -2.878  18.755  0.00  0.00    +0.000 C 
ATOM      3  O   UNL     1      -8.803  -3.360  19.496  0.00  0.00    +0.000 OA
ATOM      4  N   UNL     1      -9.922  -1.534  18.728  0.00  0.00    +0.000 N 
ATOM      5  H   UNL     1     -11.108  -3.190  17.301  0.00  0.00    +0.000 HD
ATOM      6  H   UNL     1     -10.821  -1.270  18.344  0.00  0.00    +0.000 HD
ENDROOT
BRANCH   1  10
ATOM      7  C   UNL     1     -11.152  -7.223  17.013  0.00  0.00    +0.000 C 
ATOM      8  N   UNL     1     -11.484  -6.895  18.412  0.00  0.00    +0.000 NA
ATOM      9  N   UNL     1     -10.866  -5.638  18.848  0.00  0.00    +0.000 NA
ATOM     10  C   UNL     1     -10.177  -4.988  17.738  0.00  0.00    +0.000 C 
ATOM     11  S   UNL     1     -10.865  -5.612  16.223  0.00  0.00    +0.000 S 
ATOM     12  H   UNL     1     -12.063  -7.641  16.569  0.00  0.00    +0.000 HD
ATOM     13  H   UNL     1     -11.357  -7.677  19.053  0.00  0.00    +0.000 HD
ATOM     14  H   UNL     1     -10.183  -5.769  19.598  0.00  0.00    +0.000 HD
ATOM     15  H   UNL     1      -9.110  -5.212  17.770  0.00  0.00    +0.000 HD
BRANCH   7  16
ATOM     16  C   UNL     1      -9.989  -8.277  16.821  0.00  0.00    +0.000 C 
BRANCH  16  17
ATOM     17  C   UNL     1      -9.308  -8.554  18.184  0.00  0.00    +0.000 C 
ATOM     18  H   UNL     1      -9.933  -9.203  18.809  0.00  0.00    +0.000 HD
ATOM     19  H   UNL     1      -9.121  -7.631  18.739  0.00  0.00    +0.000 HD
ATOM     20  H   UNL     1      -8.347  -9.066  18.064  0.00  0.00    +0.000 HD
ENDBRANCH  16  17
BRANCH  16  21
ATOM     21  C   UNL     1      -8.877  -7.786  15.861  0.00  0.00    +0.000 C 
ATOM     22  H   UNL     1      -8.554  -6.770  16.117  0.00  0.00    +0.000 HD
ATOM     23  H   UNL     1      -9.216  -7.761  14.822  0.00  0.00    +0.000 HD
ATOM     24  H   UNL     1      -7.981  -8.410  15.928  0.00  0.00    +0.000 HD
ENDBRANCH  16  21
BRANCH  16  25
ATOM     25  C   UNL     1     -10.504  -9.633  16.233  0.00  0.00    +0.000 C 
ATOM     26  H   UNL     1     -11.547  -9.799  16.529  0.00  0.00    +0.000 HD
ATOM     27  H   UNL     1     -10.523  -9.559  15.137  0.00  0.00    +0.000 HD
BRANCH  25  28
ATOM     28  C   UNL     1      -9.704 -10.879  16.590  0.00  0.00    +0.000 C 
ATOM     29  H   UNL     1      -8.826 -10.593  17.182  0.00  0.00    +0.000 HD
ATOM     30  H   UNL     1      -9.344 -11.404  15.702  0.00  0.00    +0.000 HD
ATOM     31  H   UNL     1     -10.287 -11.575  17.200  0.00  0.00    +0.000 HD
ENDBRANCH  25  28
ENDBRANCH  16  25
ENDBRANCH   7  16
ENDBRANCH   1  10
BRANCH   4  32
ATOM     32  C   UNL     1      -9.276  -0.705  19.714  0.00  0.00    +0.000 C 
ATOM     33  H   UNL     1      -8.686   0.040  19.166  0.00  0.00    +0.000 HD
ATOM     34  H   UNL     1      -8.569  -1.330  20.277  0.00  0.00    +0.000 HD
BRANCH  32  35
ATOM     35  C   UNL     1     -10.251  -0.019  20.662  0.00  0.00    +0.000 C 
ATOM     36  H   UNL     1     -11.108   0.349  20.084  0.00  0.00    +0.000 HD
ATOM     37  H   UNL     1      -9.784   0.866  21.112  0.00  0.00    +0.000 HD
BRANCH  35  38
ATOM     38  C   UNL     1     -10.703  -0.950  21.746  0.00  0.00    +0.000 C 
ATOM     39  C   UNL     1     -10.160  -1.120  22.957  0.00  0.00    +0.000 A 
ATOM     40  C   UNL     1      -9.054  -0.553  23.654  0.00  0.00    +0.000 A 
ATOM     41  C   UNL     1      -8.799  -0.976  24.904  0.00  0.00    +0.000 A 
ATOM     42  C   UNL     1      -9.615  -1.991  25.554  0.00  0.00    +0.000 A 
ATOM     43  C   UNL     1     -10.678  -2.573  24.971  0.00  0.00    +0.000 A 
ATOM     44  C   UNL     1     -11.008  -2.144  23.603  0.00  0.00    +0.000 A 
ATOM     45  N   UNL     1     -11.962  -2.537  22.854  0.00  0.00    +0.000 N 
ATOM     46  C   UNL     1     -11.915  -1.832  21.564  0.00  0.00    +0.000 C 
ATOM     47  H   UNL     1      -8.438   0.211  23.187  0.00  0.00    +0.000 HD
ATOM     48  H   UNL     1      -7.968  -0.560  25.469  0.00  0.00    +0.000 HD
ATOM     49  H   UNL     1      -9.323  -2.271  26.565  0.00  0.00    +0.000 HD
ATOM     50  H   UNL     1     -11.269  -3.324  25.480  0.00  0.00    +0.000 HD
ATOM     51  H   UNL     1     -12.644  -3.233  23.151  0.00  0.00    +0.000 HD
ATOM     52  H   UNL     1     -12.845  -1.267  21.456  0.00  0.00    +0.000 HD
ATOM     53  H   UNL     1     -11.793  -2.568  20.767  0.00  0.00    +0.000 HD
ENDBRANCH  35  38
ENDBRANCH  32  35
ENDBRANCH   4  32
TORSDOF 9
ENDMDL
