REMARK  Name = 
REMARK  6 active torsions:
REMARK  status: ('A' for Active; 'I' for Inactive)
REMARK    1  A    between atoms: C_1  and  C_2
REMARK    2  A    between atoms: C_4  and  O_5
REMARK    3  A    between atoms: N_10  and  C_11
REMARK    4  A    between atoms: C_11  and  C_12
REMARK    5  A    between atoms: N_14  and  C_15
REMARK    6  A    between atoms: C_18  and  C_19
REMARK                            x       y       z     vdW  Elec       q    Type
REMARK                         _______ _______ _______ _____ _____    ______ ____
ROOT
ATOM      1  C   UNL     1      -3.361   4.867   0.605  0.00  0.00    +0.000 A 
ATOM      2  C   UNL     1      -2.619   6.113   0.574  0.00  0.00    +0.000 A 
ATOM      3  C   UNL     1      -1.278   6.109   0.606  0.00  0.00    +0.000 A 
ATOM      4  O   UNL     1      -0.555   4.927   0.700  0.00  0.00    +0.000 OA
ATOM      5  C   UNL     1      -1.216   3.704   0.653  0.00  0.00    +0.000 A 
ATOM      6  C   UNL     1      -0.514   2.559   0.644  0.00  0.00    +0.000 A 
ATOM      7  C   UNL     1      -1.228   1.253   0.549  0.00  0.00    +0.000 A 
ATOM      8  N   UNL     1      -0.584   0.137   0.546  0.00  0.00    +0.000 N 
ATOM      9  C   UNL     1      -2.715   1.273   0.461  0.00  0.00    +0.000 A 
ATOM     10  C   UNL     1      -3.381   2.430   0.530  0.00  0.00    +0.000 A 
ATOM     11  C   UNL     1      -2.682   3.697   0.608  0.00  0.00    +0.000 A 
ATOM     12  H   UNL     1      -3.175   7.041   0.485  0.00  0.00    +0.000 HD
ATOM     13  H   UNL     1       0.570   2.593   0.684  0.00  0.00    +0.000 HD
ATOM     14  H   UNL     1       0.437   0.154   0.661  0.00  0.00    +0.000 HD
ATOM     15  H   UNL     1      -3.282   0.354   0.358  0.00  0.00    +0.000 HD
ATOM     16  H   UNL     1      -4.466   2.409   0.500  0.00  0.00    +0.000 HD
ENDROOT
BRANCH   1  17
ATOM     17  C   UNL     1      -4.863   4.974   0.578  0.00  0.00    +0.000 C 
ATOM     18  H   UNL     1      -5.213   6.009   0.521  0.00  0.00    +0.000 HD
ATOM     19  H   UNL     1      -5.292   4.534   1.486  0.00  0.00    +0.000 HD
ATOM     20  H   UNL     1      -5.270   4.450  -0.294  0.00  0.00    +0.000 HD
ENDBRANCH   1  17
BRANCH   8  21
ATOM     21  C   UNL     1      -1.186  -1.214   0.425  0.00  0.00    +0.000 C 
ATOM     22  H   UNL     1      -1.737  -1.280  -0.513  0.00  0.00    +0.000 HD
ATOM     23  H   UNL     1      -1.849  -1.380   1.285  0.00  0.00    +0.000 HD
BRANCH  21  24
ATOM     24  C   UNL     1      -0.077  -2.217   0.477  0.00  0.00    +0.000 C 
ATOM     25  O   UNL     1       0.306  -2.608   1.567  0.00  0.00    +0.000 OA
ATOM     26  N   UNL     1       0.500  -2.482  -0.761  0.00  0.00    +0.000 N 
ATOM     27  H   UNL     1       0.298  -1.893  -1.561  0.00  0.00    +0.000 HD
BRANCH  26  28
ATOM     28  C   UNL     1       1.583  -3.371  -0.920  0.00  0.00    +0.000 A 
ATOM     29  C   UNL     1       1.912  -4.304   0.060  0.00  0.00    +0.000 A 
ATOM     30  C   UNL     1       3.090  -5.040  -0.021  0.00  0.00    +0.000 A 
ATOM     31  C   UNL     1       3.947  -4.859  -1.103  0.00  0.00    +0.000 A 
ATOM     32  C   UNL     1       3.561  -4.001  -2.146  0.00  0.00    +0.000 A 
ATOM     33  C   UNL     1       2.371  -3.270  -2.067  0.00  0.00    +0.000 A 
ATOM     34  H   UNL     1       1.280  -4.475   0.927  0.00  0.00    +0.000 HD
ATOM     35  H   UNL     1       3.307  -5.724   0.790  0.00  0.00    +0.000 HD
ATOM     36  H   UNL     1       4.210  -3.877  -3.013  0.00  0.00    +0.000 HD
ATOM     37  H   UNL     1       2.123  -2.593  -2.880  0.00  0.00    +0.000 HD
BRANCH  31  38
ATOM     38  C   UNL     1       5.279  -5.516  -1.178  0.00  0.00    +0.000 C 
ATOM     39  N   UNL     1       5.675  -6.315  -0.143  0.00  0.00    +0.000 N 
ATOM     40  O   UNL     1       6.024  -5.319  -2.129  0.00  0.00    +0.000 OA
ATOM     41  H   UNL     1       5.173  -6.452   0.720  0.00  0.00    +0.000 HD
ATOM     42  H   UNL     1       6.612  -6.694  -0.197  0.00  0.00    +0.000 HD
ENDBRANCH  31  38
ENDBRANCH  26  28
ENDBRANCH  21  24
ENDBRANCH   8  21
BRANCH   3  43
ATOM     43  O   UNL     1      -0.552   7.276   0.522  0.00  0.00    +0.000 OA
ATOM     44  H   UNL     1      -1.164   8.022   0.403  0.00  0.00    +0.000 HD
ENDBRANCH   3  43
TORSDOF 6
