
 OpenBabel01112423113D

 46 49  0  0  0  0  0  0  0  0999 V2000
    4.2643   -1.0164    0.1319 N   0  0  0  0  0  0  0  0  0  0  0  0
    2.8755   -0.0899   -0.0777 S   0  0  0  0  0  0  0  0  0  0  0  0
    2.8621    0.3059   -1.4673 O   0  0  0  0  0  0  0  0  0  0  0  0
    1.8099   -0.8538    0.5212 O   0  0  0  0  0  0  0  0  0  0  0  0
    3.2254    1.3198    0.9303 C   0  0  0  0  0  0  0  0  0  0  0  0
    3.8860    2.4331    0.3984 C   0  0  0  0  0  0  0  0  0  0  0  0
    4.1480    3.5320    1.2190 C   0  0  0  0  0  0  0  0  0  0  0  0
    3.7245    3.5168    2.5511 C   0  0  0  0  0  0  0  0  0  0  0  0
    4.0078    4.5826    3.4091 N   0  0  0  0  0  0  0  0  0  0  0  0
    3.0933    5.5759    3.6528 C   0  0  0  0  0  0  0  0  0  0  0  0
    1.9968    5.7558    3.1591 O   0  0  0  0  0  0  0  0  0  0  0  0
    3.8041    6.4131    4.6669 C   0  0  0  0  0  0  0  0  0  0  0  0
    3.2981    7.4708    5.3153 C   0  0  0  0  0  0  0  0  0  0  0  0
    1.9513    8.0118    5.1241 C   0  0  0  0  0  0  0  0  0  0  0  0
    0.8706    7.5060    5.8613 C   0  0  0  0  0  0  0  0  0  0  0  0
   -0.4157    8.0079    5.6541 C   0  0  0  0  0  0  0  0  0  0  0  0
   -0.6198    9.0140    4.7176 C   0  0  0  0  0  0  0  0  0  0  0  0
   -1.8539    9.4903    4.5136 F   0  0  0  0  0  0  0  0  0  0  0  0
    0.4422    9.5250    3.9761 C   0  0  0  0  0  0  0  0  0  0  0  0
    1.7303    9.0248    4.1817 C   0  0  0  0  0  0  0  0  0  0  0  0
    5.0768    5.9139    4.8751 N   0  0  0  0  0  0  0  0  0  0  0  0
    5.1467    4.8438    4.1289 C   0  0  0  0  0  0  0  0  0  0  0  0
    6.3799    4.0114    4.0551 C   0  0  0  0  0  0  0  0  0  0  0  0
    6.3641    2.6296    3.8430 C   0  0  0  0  0  0  0  0  0  0  0  0
    7.5528    1.9125    3.6836 C   0  0  0  0  0  0  0  0  0  0  0  0
    8.7758    2.5655    3.7911 C   0  0  0  0  0  0  0  0  0  0  0  0
    8.8091    3.9300    4.0736 C   0  0  0  0  0  0  0  0  0  0  0  0
    7.6177    4.6514    4.2049 C   0  0  0  0  0  0  0  0  0  0  0  0
    3.0188    2.4186    3.0627 C   0  0  0  0  0  0  0  0  0  0  0  0
    2.7896    1.3077    2.2595 C   0  0  0  0  0  0  0  0  0  0  0  0
    4.6065   -1.3146   -0.7843 H   0  0  0  0  0  0  0  0  0  0  0  0
    4.0735   -1.7960    0.7621 H   0  0  0  0  0  0  0  0  0  0  0  0
    4.1975    2.4441   -0.6464 H   0  0  0  0  0  0  0  0  0  0  0  0
    4.6628    4.3991    0.8113 H   0  0  0  0  0  0  0  0  0  0  0  0
    3.9055    7.9855    6.0537 H   0  0  0  0  0  0  0  0  0  0  0  0
    1.0218    6.7123    6.5895 H   0  0  0  0  0  0  0  0  0  0  0  0
   -1.2616    7.6176    6.2114 H   0  0  0  0  0  0  0  0  0  0  0  0
    0.2590   10.3019    3.2414 H   0  0  0  0  0  0  0  0  0  0  0  0
    2.5547    9.4201    3.5924 H   0  0  0  0  0  0  0  0  0  0  0  0
    5.4438    2.0636    3.8048 H   0  0  0  0  0  0  0  0  0  0  0  0
    7.5174    0.8457    3.4755 H   0  0  0  0  0  0  0  0  0  0  0  0
    9.6996    2.0080    3.6682 H   0  0  0  0  0  0  0  0  0  0  0  0
    9.7657    4.4349    4.1851 H   0  0  0  0  0  0  0  0  0  0  0  0
    7.6643    5.7183    4.4158 H   0  0  0  0  0  0  0  0  0  0  0  0
    2.7020    2.4040    4.1030 H   0  0  0  0  0  0  0  0  0  0  0  0
    2.2826    0.4393    2.6744 H   0  0  0  0  0  0  0  0  0  0  0  0
  1  2  1  0  0  0  0
  1 31  1  0  0  0  0
  1 32  1  0  0  0  0
  2  3  2  0  0  0  0
  2  4  2  0  0  0  0
  2  5  1  0  0  0  0
  5  6  1  0  0  0  0
  5 30  2  0  0  0  0
  6  7  2  0  0  0  0
  6 33  1  0  0  0  0
  7  8  1  0  0  0  0
  7 34  1  0  0  0  0
  8  9  1  0  0  0  0
  8 29  2  0  0  0  0
  9 10  1  0  0  0  0
  9 22  1  0  0  0  0
 10 11  2  0  0  0  0
 10 12  1  0  0  0  0
 12 13  2  0  0  0  0
 12 21  1  0  0  0  0
 13 14  1  0  0  0  0
 13 35  1  0  0  0  0
 14 15  1  0  0  0  0
 14 20  2  0  0  0  0
 15 16  2  0  0  0  0
 15 36  1  0  0  0  0
 16 17  1  0  0  0  0
 16 37  1  0  0  0  0
 17 18  1  0  0  0  0
 17 19  2  0  0  0  0
 19 20  1  0  0  0  0
 19 38  1  0  0  0  0
 20 39  1  0  0  0  0
 21 22  2  0  0  0  0
 22 23  1  0  0  0  0
 23 24  1  0  0  0  0
 23 28  2  0  0  0  0
 24 25  2  0  0  0  0
 24 40  1  0  0  0  0
 25 26  1  0  0  0  0
 25 41  1  0  0  0  0
 26 27  2  0  0  0  0
 26 42  1  0  0  0  0
 27 28  1  0  0  0  0
 27 43  1  0  0  0  0
 28 44  1  0  0  0  0
 29 30  1  0  0  0  0
 29 45  1  0  0  0  0
 30 46  1  0  0  0  0
M  END
$$$$
