MODEL 1
REMARK VINA RESULT:    -9.018      0.000      0.000
REMARK INTER + INTRA:         -12.619
REMARK INTER:                 -12.181
REMARK INTRA:                  -0.437
REMARK UNBOUND:                -0.437
REMARK  Name = 
REMARK  8 active torsions:
REMARK  status: ('A' for Active; 'I' for Inactive)
REMARK    1  A    between atoms: C_1  and  C_2
REMARK    2  A    between atoms: C_2  and  C_3
REMARK    3  A    between atoms: C_2  and  S_4
REMARK    4  A    between atoms: S_4  and  C_5
REMARK    5  A    between atoms: C_12  and  C_13
REMARK    6  A    between atoms: C_16  and  N_17
REMARK    7  A    between atoms: N_17  and  C_18
REMARK    8  A    between atoms: N_17  and  C_19
REMARK                            x       y       z     vdW  Elec       q    Type
REMARK                         _______ _______ _______ _____ _____    ______ ____
ROOT
ATOM      1  C   UNL     1      -9.080 -10.762  17.533  0.00  0.00    +0.000 A 
ATOM      2  N   UNL     1      -9.551  -9.978  16.626  0.00  0.00    +0.000 NA
ATOM      3  C   UNL     1      -9.797  -8.674  16.984  0.00  0.00    +0.000 A 
ATOM      4  C   UNL     1      -9.652  -8.225  18.253  0.00  0.00    +0.000 A 
ATOM      5  C   UNL     1      -9.244  -9.187  19.290  0.00  0.00    +0.000 A 
ATOM      6  O   UNL     1      -9.272  -8.934  20.487  0.00  0.00    +0.000 OA
ATOM      7  N   UNL     1      -8.859 -10.403  18.821  0.00  0.00    +0.000 N 
ATOM      8  C   UNL     1      -9.854  -6.767  18.643  0.00  0.00    +0.000 C 
ATOM      9  C   UNL     1     -10.453  -5.949  17.509  0.00  0.00    +0.000 C 
ATOM     10  C   UNL     1     -10.561  -6.453  16.262  0.00  0.00    +0.000 C 
ATOM     11  C   UNL     1     -11.086  -5.654  15.095  0.00  0.00    +0.000 C 
ATOM     12  C   UNL     1     -11.857  -4.405  15.522  0.00  0.00    +0.000 C 
ATOM     13  C   UNL     1     -11.108  -3.643  16.600  0.00  0.00    +0.000 C 
ATOM     14  C   UNL     1     -10.869  -4.549  17.788  0.00  0.00    +0.000 C 
ATOM     15  O   UNL     1     -10.984  -4.136  18.940  0.00  0.00    +0.000 OA
ATOM     16  N   UNL     1     -10.192  -7.760  16.021  0.00  0.00    +0.000 N 
ATOM     17  H   UNL     1      -8.557 -11.095  19.489  0.00  0.00    +0.000 HD
ATOM     18  H   UNL     1     -10.568  -6.747  19.477  0.00  0.00    +0.000 HD
ATOM     19  H   UNL     1     -11.744  -6.275  14.475  0.00  0.00    +0.000 HD
ATOM     20  H   UNL     1     -10.235  -5.361  14.468  0.00  0.00    +0.000 HD
ATOM     21  H   UNL     1     -12.842  -4.702  15.902  0.00  0.00    +0.000 HD
ATOM     22  H   UNL     1     -12.030  -3.759  14.653  0.00  0.00    +0.000 HD
ATOM     23  H   UNL     1     -11.701  -2.780  16.924  0.00  0.00    +0.000 HD
ATOM     24  H   UNL     1     -10.140  -3.278  16.238  0.00  0.00    +0.000 HD
ATOM     25  H   UNL     1     -10.345  -8.162  15.104  0.00  0.00    +0.000 HD
ENDROOT
BRANCH   8  26
ATOM     26  C   UNL     1      -8.520  -6.158  19.085  0.00  0.00    +0.000 A 
ATOM     27  C   UNL     1      -7.343  -6.381  18.360  0.00  0.00    +0.000 A 
ATOM     28  C   UNL     1      -6.120  -5.865  18.803  0.00  0.00    +0.000 A 
ATOM     29  C   UNL     1      -6.005  -5.117  19.985  0.00  0.00    +0.000 A 
ATOM     30  C   UNL     1      -7.204  -4.885  20.682  0.00  0.00    +0.000 A 
ATOM     31  C   UNL     1      -8.438  -5.385  20.243  0.00  0.00    +0.000 A 
ATOM     32  H   UNL     1      -7.359  -6.970  17.447  0.00  0.00    +0.000 HD
ATOM     33  H   UNL     1      -5.253  -6.067  18.184  0.00  0.00    +0.000 HD
ATOM     34  H   UNL     1      -7.205  -4.344  21.624  0.00  0.00    +0.000 HD
ATOM     35  H   UNL     1      -9.330  -5.182  20.835  0.00  0.00    +0.000 HD
BRANCH  29  36
ATOM     36  N   UNL     1      -4.780  -4.689  20.480  0.00  0.00    +0.000 N 
BRANCH  36  37
ATOM     37  C   UNL     1      -3.625  -5.583  20.499  0.00  0.00    +0.000 C 
ATOM     38  H   UNL     1      -3.127  -5.716  19.536  0.00  0.00    +0.000 HD
ATOM     39  H   UNL     1      -3.930  -6.579  20.841  0.00  0.00    +0.000 HD
ATOM     40  H   UNL     1      -2.878  -5.198  21.202  0.00  0.00    +0.000 HD
ENDBRANCH  36  37
BRANCH  36  41
ATOM     41  C   UNL     1      -4.668  -3.529  21.358  0.00  0.00    +0.000 C 
ATOM     42  H   UNL     1      -3.638  -3.238  21.582  0.00  0.00    +0.000 HD
ATOM     43  H   UNL     1      -5.128  -3.762  22.325  0.00  0.00    +0.000 HD
ATOM     44  H   UNL     1      -5.192  -2.667  20.929  0.00  0.00    +0.000 HD
ENDBRANCH  36  41
ENDBRANCH  29  36
ENDBRANCH   8  26
BRANCH   1  45
ATOM     45  S   UNL     1      -8.668 -12.426  17.248  0.00  0.00    +0.000 S 
BRANCH  45  46
ATOM     46  C   UNL     1      -8.942 -12.570  15.448  0.00  0.00    +0.000 C 
ATOM     47  H   UNL     1      -9.941 -12.191  15.206  0.00  0.00    +0.000 HD
BRANCH  46  48
ATOM     48  C   UNL     1      -7.884 -11.791  14.671  0.00  0.00    +0.000 C 
ATOM     49  H   UNL     1      -7.488 -12.403  13.853  0.00  0.00    +0.000 HD
ATOM     50  H   UNL     1      -7.039 -11.507  15.310  0.00  0.00    +0.000 HD
ATOM     51  H   UNL     1      -8.292 -10.881  14.220  0.00  0.00    +0.000 HD
ENDBRANCH  46  48
BRANCH  46  52
ATOM     52  C   UNL     1      -8.885 -14.049  15.063  0.00  0.00    +0.000 C 
ATOM     53  H   UNL     1      -8.200 -14.614  15.706  0.00  0.00    +0.000 HD
ATOM     54  H   UNL     1      -8.528 -14.160  14.032  0.00  0.00    +0.000 HD
ATOM     55  H   UNL     1      -9.874 -14.519  15.116  0.00  0.00    +0.000 HD
ENDBRANCH  46  52
ENDBRANCH  45  46
ENDBRANCH   1  45
TORSDOF 8
ENDMDL
MODEL 2
REMARK VINA RESULT:    -8.071      3.100      7.220
REMARK INTER + INTRA:         -11.339
REMARK INTER:                 -10.450
REMARK INTRA:                  -0.889
REMARK UNBOUND:                -0.437
REMARK  Name = 
REMARK  8 active torsions:
REMARK  status: ('A' for Active; 'I' for Inactive)
REMARK    1  A    between atoms: C_1  and  C_2
REMARK    2  A    between atoms: C_2  and  C_3
REMARK    3  A    between atoms: C_2  and  S_4
REMARK    4  A    between atoms: S_4  and  C_5
REMARK    5  A    between atoms: C_12  and  C_13
REMARK    6  A    between atoms: C_16  and  N_17
REMARK    7  A    between atoms: N_17  and  C_18
REMARK    8  A    between atoms: N_17  and  C_19
REMARK                            x       y       z     vdW  Elec       q    Type
REMARK                         _______ _______ _______ _____ _____    ______ ____
ROOT
ATOM      1  C   UNL     1      -7.828  -4.701  20.265  0.00  0.00    +0.000 A 
ATOM      2  N   UNL     1      -7.562  -5.924  19.958  0.00  0.00    +0.000 NA
ATOM      3  C   UNL     1      -8.417  -6.555  19.086  0.00  0.00    +0.000 A 
ATOM      4  C   UNL     1      -9.551  -5.976  18.626  0.00  0.00    +0.000 A 
ATOM      5  C   UNL     1      -9.890  -4.627  19.110  0.00  0.00    +0.000 A 
ATOM      6  O   UNL     1     -10.975  -4.097  18.912  0.00  0.00    +0.000 OA
ATOM      7  N   UNL     1      -8.911  -4.016  19.828  0.00  0.00    +0.000 N 
ATOM      8  C   UNL     1     -10.465  -6.641  17.606  0.00  0.00    +0.000 C 
ATOM      9  C   UNL     1     -10.083  -8.091  17.356  0.00  0.00    +0.000 C 
ATOM     10  C   UNL     1      -8.931  -8.607  17.835  0.00  0.00    +0.000 C 
ATOM     11  C   UNL     1      -8.482 -10.019  17.554  0.00  0.00    +0.000 C 
ATOM     12  C   UNL     1      -9.610 -10.918  17.051  0.00  0.00    +0.000 C 
ATOM     13  C   UNL     1     -10.423 -10.224  15.973  0.00  0.00    +0.000 C 
ATOM     14  C   UNL     1     -10.982  -8.927  16.515  0.00  0.00    +0.000 C 
ATOM     15  O   UNL     1     -12.124  -8.561  16.247  0.00  0.00    +0.000 OA
ATOM     16  N   UNL     1      -8.117  -7.829  18.631  0.00  0.00    +0.000 N 
ATOM     17  H   UNL     1      -9.087  -3.084  20.172  0.00  0.00    +0.000 HD
ATOM     18  H   UNL     1     -11.480  -6.635  18.023  0.00  0.00    +0.000 HD
ATOM     19  H   UNL     1      -8.054 -10.469  18.458  0.00  0.00    +0.000 HD
ATOM     20  H   UNL     1      -7.682  -9.983  16.804  0.00  0.00    +0.000 HD
ATOM     21  H   UNL     1     -10.266 -11.178  17.891  0.00  0.00    +0.000 HD
ATOM     22  H   UNL     1      -9.196 -11.857  16.666  0.00  0.00    +0.000 HD
ATOM     23  H   UNL     1     -11.254 -10.867  15.663  0.00  0.00    +0.000 HD
ATOM     24  H   UNL     1      -9.814 -10.000  15.089  0.00  0.00    +0.000 HD
ATOM     25  H   UNL     1      -7.292  -8.238  19.054  0.00  0.00    +0.000 HD
ENDROOT
BRANCH   8  26
ATOM     26  C   UNL     1     -10.436  -5.853  16.293  0.00  0.00    +0.000 A 
ATOM     27  C   UNL     1      -9.303  -5.850  15.471  0.00  0.00    +0.000 A 
ATOM     28  C   UNL     1      -9.269  -5.083  14.300  0.00  0.00    +0.000 A 
ATOM     29  C   UNL     1     -10.346  -4.280  13.898  0.00  0.00    +0.000 A 
ATOM     30  C   UNL     1     -11.482  -4.321  14.725  0.00  0.00    +0.000 A 
ATOM     31  C   UNL     1     -11.536  -5.094  15.893  0.00  0.00    +0.000 A 
ATOM     32  H   UNL     1      -8.425  -6.434  15.737  0.00  0.00    +0.000 HD
ATOM     33  H   UNL     1      -8.362  -5.140  13.708  0.00  0.00    +0.000 HD
ATOM     34  H   UNL     1     -12.351  -3.706  14.508  0.00  0.00    +0.000 HD
ATOM     35  H   UNL     1     -12.441  -5.072  16.500  0.00  0.00    +0.000 HD
BRANCH  29  36
ATOM     36  N   UNL     1     -10.279  -3.443  12.792  0.00  0.00    +0.000 N 
BRANCH  36  37
ATOM     37  C   UNL     1      -9.348  -2.317  12.759  0.00  0.00    +0.000 C 
ATOM     38  H   UNL     1      -8.422  -2.467  13.317  0.00  0.00    +0.000 HD
ATOM     39  H   UNL     1      -9.830  -1.423  13.172  0.00  0.00    +0.000 HD
ATOM     40  H   UNL     1      -9.072  -2.103  11.721  0.00  0.00    +0.000 HD
ENDBRANCH  36  37
BRANCH  36  41
ATOM     41  C   UNL     1     -11.363  -3.366  11.818  0.00  0.00    +0.000 C 
ATOM     42  H   UNL     1     -12.089  -4.179  11.896  0.00  0.00    +0.000 HD
ATOM     43  H   UNL     1     -10.947  -3.434  10.807  0.00  0.00    +0.000 HD
ATOM     44  H   UNL     1     -11.893  -2.411  11.905  0.00  0.00    +0.000 HD
ENDBRANCH  36  41
ENDBRANCH  29  36
ENDBRANCH   8  26
BRANCH   1  45
ATOM     45  S   UNL     1      -6.834  -3.735  21.314  0.00  0.00    +0.000 S 
BRANCH  45  46
ATOM     46  C   UNL     1      -8.083  -2.982  22.414  0.00  0.00    +0.000 C 
ATOM     47  H   UNL     1      -9.067  -3.045  21.937  0.00  0.00    +0.000 HD
BRANCH  46  48
ATOM     48  C   UNL     1      -8.113  -3.688  23.768  0.00  0.00    +0.000 C 
ATOM     49  H   UNL     1      -7.630  -3.065  24.529  0.00  0.00    +0.000 HD
ATOM     50  H   UNL     1      -7.580  -4.645  23.738  0.00  0.00    +0.000 HD
ATOM     51  H   UNL     1      -9.135  -3.876  24.111  0.00  0.00    +0.000 HD
ENDBRANCH  46  48
BRANCH  46  52
ATOM     52  C   UNL     1      -7.736  -1.505  22.606  0.00  0.00    +0.000 C 
ATOM     53  H   UNL     1      -6.665  -1.315  22.481  0.00  0.00    +0.000 HD
ATOM     54  H   UNL     1      -8.008  -1.179  23.617  0.00  0.00    +0.000 HD
ATOM     55  H   UNL     1      -8.284  -0.868  21.902  0.00  0.00    +0.000 HD
ENDBRANCH  46  52
ENDBRANCH  45  46
ENDBRANCH   1  45
TORSDOF 8
ENDMDL
MODEL 3
REMARK VINA RESULT:    -7.435      3.096      6.829
REMARK INTER + INTRA:         -10.480
REMARK INTER:                 -10.509
REMARK INTRA:                   0.029
REMARK UNBOUND:                -0.437
REMARK  Name = 
REMARK  8 active torsions:
REMARK  status: ('A' for Active; 'I' for Inactive)
REMARK    1  A    between atoms: C_1  and  C_2
REMARK    2  A    between atoms: C_2  and  C_3
REMARK    3  A    between atoms: C_2  and  S_4
REMARK    4  A    between atoms: S_4  and  C_5
REMARK    5  A    between atoms: C_12  and  C_13
REMARK    6  A    between atoms: C_16  and  N_17
REMARK    7  A    between atoms: N_17  and  C_18
REMARK    8  A    between atoms: N_17  and  C_19
REMARK                            x       y       z     vdW  Elec       q    Type
REMARK                         _______ _______ _______ _____ _____    ______ ____
ROOT
ATOM      1  C   UNL     1      -7.296  -4.308  21.259  0.00  0.00    +0.000 A 
ATOM      2  N   UNL     1      -8.421  -3.838  20.843  0.00  0.00    +0.000 NA
ATOM      3  C   UNL     1      -8.848  -4.235  19.598  0.00  0.00    +0.000 A 
ATOM      4  C   UNL     1      -8.097  -5.009  18.780  0.00  0.00    +0.000 A 
ATOM      5  C   UNL     1      -6.757  -5.411  19.238  0.00  0.00    +0.000 A 
ATOM      6  O   UNL     1      -5.930  -5.940  18.507  0.00  0.00    +0.000 OA
ATOM      7  N   UNL     1      -6.487  -5.122  20.538  0.00  0.00    +0.000 N 
ATOM      8  C   UNL     1      -8.593  -5.510  17.430  0.00  0.00    +0.000 C 
ATOM      9  C   UNL     1      -9.904  -4.856  17.024  0.00  0.00    +0.000 C 
ATOM     10  C   UNL     1     -10.611  -4.103  17.891  0.00  0.00    +0.000 C 
ATOM     11  C   UNL     1     -11.948  -3.492  17.551  0.00  0.00    +0.000 C 
ATOM     12  C   UNL     1     -12.222  -3.448  16.049  0.00  0.00    +0.000 C 
ATOM     13  C   UNL     1     -11.880  -4.774  15.392  0.00  0.00    +0.000 C 
ATOM     14  C   UNL     1     -10.430  -5.112  15.656  0.00  0.00    +0.000 C 
ATOM     15  O   UNL     1      -9.720  -5.607  14.783  0.00  0.00    +0.000 OA
ATOM     16  N   UNL     1     -10.102  -3.855  19.149  0.00  0.00    +0.000 N 
ATOM     17  H   UNL     1      -5.588  -5.389  20.907  0.00  0.00    +0.000 HD
ATOM     18  H   UNL     1      -7.840  -5.232  16.681  0.00  0.00    +0.000 HD
ATOM     19  H   UNL     1     -12.011  -2.471  17.947  0.00  0.00    +0.000 HD
ATOM     20  H   UNL     1     -12.731  -4.078  18.048  0.00  0.00    +0.000 HD
ATOM     21  H   UNL     1     -11.620  -2.651  15.595  0.00  0.00    +0.000 HD
ATOM     22  H   UNL     1     -13.274  -3.198  15.869  0.00  0.00    +0.000 HD
ATOM     23  H   UNL     1     -12.039  -4.704  14.311  0.00  0.00    +0.000 HD
ATOM     24  H   UNL     1     -12.505  -5.589  15.778  0.00  0.00    +0.000 HD
ATOM     25  H   UNL     1     -10.595  -3.227  19.773  0.00  0.00    +0.000 HD
ENDROOT
BRANCH   8  26
ATOM     26  C   UNL     1      -8.751  -7.033  17.468  0.00  0.00    +0.000 A 
ATOM     27  C   UNL     1      -8.957  -7.712  18.675  0.00  0.00    +0.000 A 
ATOM     28  C   UNL     1      -9.047  -9.109  18.704  0.00  0.00    +0.000 A 
ATOM     29  C   UNL     1      -8.926  -9.893  17.547  0.00  0.00    +0.000 A 
ATOM     30  C   UNL     1      -8.747  -9.187  16.345  0.00  0.00    +0.000 A 
ATOM     31  C   UNL     1      -8.668  -7.787  16.299  0.00  0.00    +0.000 A 
ATOM     32  H   UNL     1      -9.037  -7.165  19.611  0.00  0.00    +0.000 HD
ATOM     33  H   UNL     1      -9.219  -9.565  19.673  0.00  0.00    +0.000 HD
ATOM     34  H   UNL     1      -8.611  -9.714  15.405  0.00  0.00    +0.000 HD
ATOM     35  H   UNL     1      -8.514  -7.300  15.337  0.00  0.00    +0.000 HD
BRANCH  29  36
ATOM     36  N   UNL     1      -8.915 -11.282  17.586  0.00  0.00    +0.000 N 
BRANCH  36  37
ATOM     37  C   UNL     1      -8.517 -11.995  18.797  0.00  0.00    +0.000 C 
ATOM     38  H   UNL     1      -7.933 -11.407  19.509  0.00  0.00    +0.000 HD
ATOM     39  H   UNL     1      -7.913 -12.870  18.533  0.00  0.00    +0.000 HD
ATOM     40  H   UNL     1      -9.411 -12.347  19.323  0.00  0.00    +0.000 HD
ENDBRANCH  36  37
BRANCH  36  41
ATOM     41  C   UNL     1      -8.886 -12.085  16.368  0.00  0.00    +0.000 C 
ATOM     42  H   UNL     1      -9.750 -12.744  16.250  0.00  0.00    +0.000 HD
ATOM     43  H   UNL     1      -8.011 -12.743  16.389  0.00  0.00    +0.000 HD
ATOM     44  H   UNL     1      -8.809 -11.443  15.484  0.00  0.00    +0.000 HD
ENDBRANCH  36  41
ENDBRANCH  29  36
ENDBRANCH   8  26
BRANCH   1  45
ATOM     45  S   UNL     1      -6.624  -3.953  22.822  0.00  0.00    +0.000 S 
BRANCH  45  46
ATOM     46  C   UNL     1      -8.108  -3.435  23.752  0.00  0.00    +0.000 C 
ATOM     47  H   UNL     1      -9.003  -3.770  23.216  0.00  0.00    +0.000 HD
BRANCH  46  48
ATOM     48  C   UNL     1      -8.096  -4.017  25.164  0.00  0.00    +0.000 C 
ATOM     49  H   UNL     1      -7.163  -3.754  25.674  0.00  0.00    +0.000 HD
ATOM     50  H   UNL     1      -8.169  -5.111  25.152  0.00  0.00    +0.000 HD
ATOM     51  H   UNL     1      -8.915  -3.628  25.776  0.00  0.00    +0.000 HD
ENDBRANCH  46  48
BRANCH  46  52
ATOM     52  C   UNL     1      -8.133  -1.908  23.821  0.00  0.00    +0.000 C 
ATOM     53  H   UNL     1      -7.576  -1.526  24.684  0.00  0.00    +0.000 HD
ATOM     54  H   UNL     1      -9.164  -1.548  23.914  0.00  0.00    +0.000 HD
ATOM     55  H   UNL     1      -7.714  -1.457  22.914  0.00  0.00    +0.000 HD
ENDBRANCH  46  52
ENDBRANCH  45  46
ENDBRANCH   1  45
TORSDOF 8
ENDMDL
MODEL 4
REMARK VINA RESULT:    -7.251      2.837      3.812
REMARK INTER + INTRA:         -10.231
REMARK INTER:                  -9.749
REMARK INTRA:                  -0.482
REMARK UNBOUND:                -0.437
REMARK  Name = 
REMARK  8 active torsions:
REMARK  status: ('A' for Active; 'I' for Inactive)
REMARK    1  A    between atoms: C_1  and  C_2
REMARK    2  A    between atoms: C_2  and  C_3
REMARK    3  A    between atoms: C_2  and  S_4
REMARK    4  A    between atoms: S_4  and  C_5
REMARK    5  A    between atoms: C_12  and  C_13
REMARK    6  A    between atoms: C_16  and  N_17
REMARK    7  A    between atoms: N_17  and  C_18
REMARK    8  A    between atoms: N_17  and  C_19
REMARK                            x       y       z     vdW  Elec       q    Type
REMARK                         _______ _______ _______ _____ _____    ______ ____
ROOT
ATOM      1  C   UNL     1      -9.309  -8.483  16.697  0.00  0.00    +0.000 A 
ATOM      2  N   UNL     1      -8.995  -7.697  15.726  0.00  0.00    +0.000 NA
ATOM      3  C   UNL     1      -9.624  -6.476  15.674  0.00  0.00    +0.000 A 
ATOM      4  C   UNL     1     -10.607  -6.123  16.535  0.00  0.00    +0.000 A 
ATOM      5  C   UNL     1     -11.034  -7.106  17.545  0.00  0.00    +0.000 A 
ATOM      6  O   UNL     1     -12.033  -6.964  18.238  0.00  0.00    +0.000 OA
ATOM      7  N   UNL     1     -10.247  -8.211  17.635  0.00  0.00    +0.000 N 
ATOM      8  C   UNL     1     -11.259  -4.747  16.528  0.00  0.00    +0.000 C 
ATOM      9  C   UNL     1     -10.848  -3.926  15.316  0.00  0.00    +0.000 C 
ATOM     10  C   UNL     1      -9.852  -4.329  14.501  0.00  0.00    +0.000 C 
ATOM     11  C   UNL     1      -9.368  -3.513  13.328  0.00  0.00    +0.000 C 
ATOM     12  C   UNL     1     -10.355  -2.426  12.905  0.00  0.00    +0.000 C 
ATOM     13  C   UNL     1     -10.877  -1.664  14.110  0.00  0.00    +0.000 C 
ATOM     14  C   UNL     1     -11.531  -2.627  15.075  0.00  0.00    +0.000 C 
ATOM     15  O   UNL     1     -12.571  -2.336  15.662  0.00  0.00    +0.000 OA
ATOM     16  N   UNL     1      -9.241  -5.546  14.722  0.00  0.00    +0.000 N 
ATOM     17  H   UNL     1     -10.487  -8.909  18.321  0.00  0.00    +0.000 HD
ATOM     18  H   UNL     1     -12.345  -4.900  16.470  0.00  0.00    +0.000 HD
ATOM     19  H   UNL     1      -9.175  -4.163  12.466  0.00  0.00    +0.000 HD
ATOM     20  H   UNL     1      -8.411  -3.050  13.602  0.00  0.00    +0.000 HD
ATOM     21  H   UNL     1     -11.196  -2.890  12.375  0.00  0.00    +0.000 HD
ATOM     22  H   UNL     1      -9.873  -1.738  12.202  0.00  0.00    +0.000 HD
ATOM     23  H   UNL     1     -11.617  -0.924  13.788  0.00  0.00    +0.000 HD
ATOM     24  H   UNL     1     -10.071  -1.136  14.634  0.00  0.00    +0.000 HD
ATOM     25  H   UNL     1      -8.547  -5.884  14.065  0.00  0.00    +0.000 HD
ENDROOT
BRANCH   8  26
ATOM     26  C   UNL     1     -10.907  -3.999  17.817  0.00  0.00    +0.000 A 
ATOM     27  C   UNL     1     -11.902  -3.440  18.629  0.00  0.00    +0.000 A 
ATOM     28  C   UNL     1     -11.565  -2.714  19.776  0.00  0.00    +0.000 A 
ATOM     29  C   UNL     1     -10.234  -2.498  20.165  0.00  0.00    +0.000 A 
ATOM     30  C   UNL     1      -9.255  -3.091  19.349  0.00  0.00    +0.000 A 
ATOM     31  C   UNL     1      -9.577  -3.834  18.204  0.00  0.00    +0.000 A 
ATOM     32  H   UNL     1     -12.952  -3.552  18.372  0.00  0.00    +0.000 HD
ATOM     33  H   UNL     1     -12.389  -2.321  20.363  0.00  0.00    +0.000 HD
ATOM     34  H   UNL     1      -8.198  -2.950  19.556  0.00  0.00    +0.000 HD
ATOM     35  H   UNL     1      -8.772  -4.257  17.606  0.00  0.00    +0.000 HD
BRANCH  29  36
ATOM     36  N   UNL     1      -9.894  -1.695  21.246  0.00  0.00    +0.000 N 
BRANCH  36  37
ATOM     37  C   UNL     1      -8.518  -1.638  21.734  0.00  0.00    +0.000 C 
ATOM     38  H   UNL     1      -8.325  -0.866  22.482  0.00  0.00    +0.000 HD
ATOM     39  H   UNL     1      -7.834  -1.453  20.898  0.00  0.00    +0.000 HD
ATOM     40  H   UNL     1      -8.251  -2.601  22.184  0.00  0.00    +0.000 HD
ENDBRANCH  36  37
BRANCH  36  41
ATOM     41  C   UNL     1     -10.896  -1.210  22.189  0.00  0.00    +0.000 C 
ATOM     42  H   UNL     1     -10.508  -0.501  22.926  0.00  0.00    +0.000 HD
ATOM     43  H   UNL     1     -11.288  -2.054  22.767  0.00  0.00    +0.000 HD
ATOM     44  H   UNL     1     -11.732  -0.742  21.657  0.00  0.00    +0.000 HD
ENDBRANCH  36  41
ENDBRANCH  29  36
ENDBRANCH   8  26
BRANCH   1  45
ATOM     45  S   UNL     1      -8.582 -10.042  16.946  0.00  0.00    +0.000 S 
BRANCH  45  46
ATOM     46  C   UNL     1      -9.413 -11.045  15.666  0.00  0.00    +0.000 C 
ATOM     47  H   UNL     1     -10.415 -11.318  16.017  0.00  0.00    +0.000 HD
BRANCH  46  48
ATOM     48  C   UNL     1      -9.512 -10.277  14.350  0.00  0.00    +0.000 C 
ATOM     49  H   UNL     1     -10.376 -10.625  13.773  0.00  0.00    +0.000 HD
ATOM     50  H   UNL     1      -8.620 -10.421  13.729  0.00  0.00    +0.000 HD
ATOM     51  H   UNL     1      -9.647  -9.203  14.511  0.00  0.00    +0.000 HD
ENDBRANCH  46  48
BRANCH  46  52
ATOM     52  C   UNL     1      -8.612 -12.331  15.457  0.00  0.00    +0.000 C 
ATOM     53  H   UNL     1      -7.538 -12.175  15.612  0.00  0.00    +0.000 HD
ATOM     54  H   UNL     1      -8.742 -12.698  14.433  0.00  0.00    +0.000 HD
ATOM     55  H   UNL     1      -8.946 -13.128  16.132  0.00  0.00    +0.000 HD
ENDBRANCH  46  52
ENDBRANCH  45  46
ENDBRANCH   1  45
TORSDOF 8
ENDMDL
MODEL 5
REMARK VINA RESULT:    -7.174      3.957      5.634
REMARK INTER + INTRA:         -10.128
REMARK INTER:                  -9.224
REMARK INTRA:                  -0.904
REMARK UNBOUND:                -0.437
REMARK  Name = 
REMARK  8 active torsions:
REMARK  status: ('A' for Active; 'I' for Inactive)
REMARK    1  A    between atoms: C_1  and  C_2
REMARK    2  A    between atoms: C_2  and  C_3
REMARK    3  A    between atoms: C_2  and  S_4
REMARK    4  A    between atoms: S_4  and  C_5
REMARK    5  A    between atoms: C_12  and  C_13
REMARK    6  A    between atoms: C_16  and  N_17
REMARK    7  A    between atoms: N_17  and  C_18
REMARK    8  A    between atoms: N_17  and  C_19
REMARK                            x       y       z     vdW  Elec       q    Type
REMARK                         _______ _______ _______ _____ _____    ______ ____
ROOT
ATOM      1  C   UNL     1      -9.642  -6.174  16.415  0.00  0.00    +0.000 A 
ATOM      2  N   UNL     1     -10.151  -5.982  15.247  0.00  0.00    +0.000 NA
ATOM      3  C   UNL     1     -10.701  -4.749  14.994  0.00  0.00    +0.000 A 
ATOM      4  C   UNL     1     -10.807  -3.787  15.941  0.00  0.00    +0.000 A 
ATOM      5  C   UNL     1     -10.338  -4.096  17.302  0.00  0.00    +0.000 A 
ATOM      6  O   UNL     1     -10.563  -3.377  18.267  0.00  0.00    +0.000 OA
ATOM      7  N   UNL     1      -9.657  -5.266  17.420  0.00  0.00    +0.000 N 
ATOM      8  C   UNL     1     -11.350  -2.394  15.649  0.00  0.00    +0.000 C 
ATOM      9  C   UNL     1     -11.962  -2.299  14.261  0.00  0.00    +0.000 C 
ATOM     10  C   UNL     1     -11.813  -3.290  13.358  0.00  0.00    +0.000 C 
ATOM     11  C   UNL     1     -12.346  -3.207  11.949  0.00  0.00    +0.000 C 
ATOM     12  C   UNL     1     -13.402  -2.118  11.771  0.00  0.00    +0.000 C 
ATOM     13  C   UNL     1     -12.963  -0.818  12.422  0.00  0.00    +0.000 C 
ATOM     14  C   UNL     1     -12.689  -1.054  13.890  0.00  0.00    +0.000 C 
ATOM     15  O   UNL     1     -13.024  -0.236  14.743  0.00  0.00    +0.000 OA
ATOM     16  N   UNL     1     -11.156  -4.448  13.720  0.00  0.00    +0.000 N 
ATOM     17  H   UNL     1      -9.302  -5.519  18.329  0.00  0.00    +0.000 HD
ATOM     18  H   UNL     1     -12.149  -2.196  16.376  0.00  0.00    +0.000 HD
ATOM     19  H   UNL     1     -12.781  -4.168  11.650  0.00  0.00    +0.000 HD
ATOM     20  H   UNL     1     -11.503  -3.012  11.273  0.00  0.00    +0.000 HD
ATOM     21  H   UNL     1     -14.344  -2.452  12.224  0.00  0.00    +0.000 HD
ATOM     22  H   UNL     1     -13.598  -1.959  10.704  0.00  0.00    +0.000 HD
ATOM     23  H   UNL     1     -13.755  -0.069  12.323  0.00  0.00    +0.000 HD
ATOM     24  H   UNL     1     -12.054  -0.421  11.955  0.00  0.00    +0.000 HD
ATOM     25  H   UNL     1     -11.111  -5.222  13.069  0.00  0.00    +0.000 HD
ENDROOT
BRANCH   8  26
ATOM     26  C   UNL     1     -10.233  -1.358  15.807  0.00  0.00    +0.000 A 
ATOM     27  C   UNL     1      -9.164  -1.298  14.904  0.00  0.00    +0.000 A 
ATOM     28  C   UNL     1      -8.122  -0.382  15.089  0.00  0.00    +0.000 A 
ATOM     29  C   UNL     1      -8.085   0.503  16.176  0.00  0.00    +0.000 A 
ATOM     30  C   UNL     1      -9.182   0.442  17.054  0.00  0.00    +0.000 A 
ATOM     31  C   UNL     1     -10.240  -0.461  16.874  0.00  0.00    +0.000 A 
ATOM     32  H   UNL     1      -9.121  -1.971  14.052  0.00  0.00    +0.000 HD
ATOM     33  H   UNL     1      -7.335  -0.384  14.343  0.00  0.00    +0.000 HD
ATOM     34  H   UNL     1      -9.221   1.068  17.941  0.00  0.00    +0.000 HD
ATOM     35  H   UNL     1     -11.054  -0.469  17.597  0.00  0.00    +0.000 HD
BRANCH  29  36
ATOM     36  N   UNL     1      -7.005   1.343  16.417  0.00  0.00    +0.000 N 
BRANCH  36  37
ATOM     37  C   UNL     1      -5.699   1.075  15.820  0.00  0.00    +0.000 C 
ATOM     38  H   UNL     1      -5.666   0.214  15.148  0.00  0.00    +0.000 HD
ATOM     39  H   UNL     1      -4.959   0.893  16.608  0.00  0.00    +0.000 HD
ATOM     40  H   UNL     1      -5.374   1.949  15.245  0.00  0.00    +0.000 HD
ENDBRANCH  36  37
BRANCH  36  41
ATOM     41  C   UNL     1      -6.979   2.256  17.555  0.00  0.00    +0.000 C 
ATOM     42  H   UNL     1      -6.128   2.942  17.555  0.00  0.00    +0.000 HD
ATOM     43  H   UNL     1      -6.895   1.678  18.481  0.00  0.00    +0.000 HD
ATOM     44  H   UNL     1      -7.904   2.843  17.601  0.00  0.00    +0.000 HD
ENDBRANCH  36  41
ENDBRANCH  29  36
ENDBRANCH   8  26
BRANCH   1  45
ATOM     45  S   UNL     1      -8.865  -7.653  16.895  0.00  0.00    +0.000 S 
BRANCH  45  46
ATOM     46  C   UNL     1      -9.729  -8.879  15.852  0.00  0.00    +0.000 C 
ATOM     47  H   UNL     1     -10.686  -8.460  15.524  0.00  0.00    +0.000 HD
BRANCH  46  48
ATOM     48  C   UNL     1      -8.881  -9.258  14.640  0.00  0.00    +0.000 C 
ATOM     49  H   UNL     1      -7.889  -8.799  14.715  0.00  0.00    +0.000 HD
ATOM     50  H   UNL     1      -9.335  -8.913  13.704  0.00  0.00    +0.000 HD
ATOM     51  H   UNL     1      -8.728 -10.338  14.567  0.00  0.00    +0.000 HD
ENDBRANCH  46  48
BRANCH  46  52
ATOM     52  C   UNL     1     -10.014 -10.122  16.696  0.00  0.00    +0.000 C 
ATOM     53  H   UNL     1      -9.092 -10.598  17.050  0.00  0.00    +0.000 HD
ATOM     54  H   UNL     1     -10.557 -10.868  16.103  0.00  0.00    +0.000 HD
ATOM     55  H   UNL     1     -10.636  -9.885  17.567  0.00  0.00    +0.000 HD
ENDBRANCH  46  52
ENDBRANCH  45  46
ENDBRANCH   1  45
TORSDOF 8
ENDMDL
MODEL 6
REMARK VINA RESULT:    -7.103      3.926      6.170
REMARK INTER + INTRA:         -10.031
REMARK INTER:                  -9.054
REMARK INTRA:                  -0.978
REMARK UNBOUND:                -0.437
REMARK  Name = 
REMARK  8 active torsions:
REMARK  status: ('A' for Active; 'I' for Inactive)
REMARK    1  A    between atoms: C_1  and  C_2
REMARK    2  A    between atoms: C_2  and  C_3
REMARK    3  A    between atoms: C_2  and  S_4
REMARK    4  A    between atoms: S_4  and  C_5
REMARK    5  A    between atoms: C_12  and  C_13
REMARK    6  A    between atoms: C_16  and  N_17
REMARK    7  A    between atoms: N_17  and  C_18
REMARK    8  A    between atoms: N_17  and  C_19
REMARK                            x       y       z     vdW  Elec       q    Type
REMARK                         _______ _______ _______ _____ _____    ______ ____
ROOT
ATOM      1  C   UNL     1     -10.911  -5.929  17.499  0.00  0.00    +0.000 A 
ATOM      2  N   UNL     1     -11.093  -5.898  16.224  0.00  0.00    +0.000 NA
ATOM      3  C   UNL     1     -11.455  -4.694  15.668  0.00  0.00    +0.000 A 
ATOM      4  C   UNL     1     -11.711  -3.593  16.412  0.00  0.00    +0.000 A 
ATOM      5  C   UNL     1     -11.626  -3.707  17.877  0.00  0.00    +0.000 A 
ATOM      6  O   UNL     1     -12.022  -2.837  18.642  0.00  0.00    +0.000 OA
ATOM      7  N   UNL     1     -11.098  -4.875  18.329  0.00  0.00    +0.000 N 
ATOM      8  C   UNL     1     -12.043  -2.239  15.799  0.00  0.00    +0.000 C 
ATOM      9  C   UNL     1     -12.279  -2.332  14.300  0.00  0.00    +0.000 C 
ATOM     10  C   UNL     1     -11.993  -3.458  13.613  0.00  0.00    +0.000 C 
ATOM     11  C   UNL     1     -12.148  -3.571  12.117  0.00  0.00    +0.000 C 
ATOM     12  C   UNL     1     -13.029  -2.474  11.521  0.00  0.00    +0.000 C 
ATOM     13  C   UNL     1     -12.657  -1.111  12.077  0.00  0.00    +0.000 C 
ATOM     14  C   UNL     1     -12.780  -1.128  13.585  0.00  0.00    +0.000 C 
ATOM     15  O   UNL     1     -13.247  -0.171  14.199  0.00  0.00    +0.000 OA
ATOM     16  N   UNL     1     -11.550  -4.574  14.291  0.00  0.00    +0.000 N 
ATOM     17  H   UNL     1     -11.005  -5.000  19.325  0.00  0.00    +0.000 HD
ATOM     18  H   UNL     1     -12.978  -1.892  16.259  0.00  0.00    +0.000 HD
ATOM     19  H   UNL     1     -12.575  -4.545  11.851  0.00  0.00    +0.000 HD
ATOM     20  H   UNL     1     -11.150  -3.523  11.663  0.00  0.00    +0.000 HD
ATOM     21  H   UNL     1     -14.080  -2.689  11.755  0.00  0.00    +0.000 HD
ATOM     22  H   UNL     1     -12.938  -2.475  10.429  0.00  0.00    +0.000 HD
ATOM     23  H   UNL     1     -13.333  -0.349  11.673  0.00  0.00    +0.000 HD
ATOM     24  H   UNL     1     -11.630  -0.834  11.812  0.00  0.00    +0.000 HD
ATOM     25  H   UNL     1     -11.409  -5.443  13.787  0.00  0.00    +0.000 HD
ENDROOT
BRANCH   8  26
ATOM     26  C   UNL     1     -10.917  -1.244  16.096  0.00  0.00    +0.000 A 
ATOM     27  C   UNL     1      -9.663  -1.362  15.485  0.00  0.00    +0.000 A 
ATOM     28  C   UNL     1      -8.624  -0.480  15.805  0.00  0.00    +0.000 A 
ATOM     29  C   UNL     1      -8.777   0.548  16.748  0.00  0.00    +0.000 A 
ATOM     30  C   UNL     1     -10.052   0.662  17.329  0.00  0.00    +0.000 A 
ATOM     31  C   UNL     1     -11.105  -0.206  17.008  0.00  0.00    +0.000 A 
ATOM     32  H   UNL     1      -9.472  -2.150  14.761  0.00  0.00    +0.000 HD
ATOM     33  H   UNL     1      -7.685  -0.624  15.283  0.00  0.00    +0.000 HD
ATOM     34  H   UNL     1     -10.251   1.408  18.093  0.00  0.00    +0.000 HD
ATOM     35  H   UNL     1     -12.067  -0.074  17.503  0.00  0.00    +0.000 HD
BRANCH  29  36
ATOM     36  N   UNL     1      -7.721   1.361  17.141  0.00  0.00    +0.000 N 
BRANCH  36  37
ATOM     37  C   UNL     1      -7.954   2.545  17.965  0.00  0.00    +0.000 C 
ATOM     38  H   UNL     1      -8.481   3.360  17.464  0.00  0.00    +0.000 HD
ATOM     39  H   UNL     1      -6.997   2.950  18.314  0.00  0.00    +0.000 HD
ATOM     40  H   UNL     1      -8.545   2.267  18.844  0.00  0.00    +0.000 HD
ENDBRANCH  36  37
BRANCH  36  41
ATOM     41  C   UNL     1      -6.437   1.343  16.449  0.00  0.00    +0.000 C 
ATOM     42  H   UNL     1      -5.724   2.087  16.814  0.00  0.00    +0.000 HD
ATOM     43  H   UNL     1      -6.593   1.576  15.390  0.00  0.00    +0.000 HD
ATOM     44  H   UNL     1      -5.976   0.351  16.516  0.00  0.00    +0.000 HD
ENDBRANCH  36  41
ENDBRANCH  29  36
ENDBRANCH   8  26
BRANCH   1  45
ATOM     45  S   UNL     1     -10.407  -7.350  18.364  0.00  0.00    +0.000 S 
BRANCH  45  46
ATOM     46  C   UNL     1      -8.832  -6.792  19.103  0.00  0.00    +0.000 C 
ATOM     47  H   UNL     1      -9.004  -5.861  19.654  0.00  0.00    +0.000 HD
BRANCH  46  48
ATOM     48  C   UNL     1      -8.263  -7.856  20.039  0.00  0.00    +0.000 C 
ATOM     49  H   UNL     1      -8.956  -8.040  20.867  0.00  0.00    +0.000 HD
ATOM     50  H   UNL     1      -7.305  -7.543  20.473  0.00  0.00    +0.000 HD
ATOM     51  H   UNL     1      -8.112  -8.812  19.531  0.00  0.00    +0.000 HD
ENDBRANCH  46  48
BRANCH  46  52
ATOM     52  C   UNL     1      -7.839  -6.507  17.976  0.00  0.00    +0.000 C 
ATOM     53  H   UNL     1      -7.554  -5.449  17.938  0.00  0.00    +0.000 HD
ATOM     54  H   UNL     1      -8.282  -6.759  17.006  0.00  0.00    +0.000 HD
ATOM     55  H   UNL     1      -6.927  -7.106  18.081  0.00  0.00    +0.000 HD
ENDBRANCH  46  52
ENDBRANCH  45  46
ENDBRANCH   1  45
TORSDOF 8
ENDMDL
MODEL 7
REMARK VINA RESULT:    -7.033      5.603      9.702
REMARK INTER + INTRA:          -9.937
REMARK INTER:                  -9.058
REMARK INTRA:                  -0.879
REMARK UNBOUND:                -0.437
REMARK  Name = 
REMARK  8 active torsions:
REMARK  status: ('A' for Active; 'I' for Inactive)
REMARK    1  A    between atoms: C_1  and  C_2
REMARK    2  A    between atoms: C_2  and  C_3
REMARK    3  A    between atoms: C_2  and  S_4
REMARK    4  A    between atoms: S_4  and  C_5
REMARK    5  A    between atoms: C_12  and  C_13
REMARK    6  A    between atoms: C_16  and  N_17
REMARK    7  A    between atoms: N_17  and  C_18
REMARK    8  A    between atoms: N_17  and  C_19
REMARK                            x       y       z     vdW  Elec       q    Type
REMARK                         _______ _______ _______ _____ _____    ______ ____
ROOT
ATOM      1  C   UNL     1      -8.768  -0.307  24.021  0.00  0.00    +0.000 A 
ATOM      2  N   UNL     1      -7.662  -0.860  23.660  0.00  0.00    +0.000 NA
ATOM      3  C   UNL     1      -7.732  -1.847  22.706  0.00  0.00    +0.000 A 
ATOM      4  C   UNL     1      -8.908  -2.308  22.216  0.00  0.00    +0.000 A 
ATOM      5  C   UNL     1     -10.156  -1.745  22.757  0.00  0.00    +0.000 A 
ATOM      6  O   UNL     1     -11.260  -2.221  22.528  0.00  0.00    +0.000 OA
ATOM      7  N   UNL     1      -9.992  -0.663  23.563  0.00  0.00    +0.000 N 
ATOM      8  C   UNL     1      -8.991  -3.350  21.108  0.00  0.00    +0.000 C 
ATOM      9  C   UNL     1      -7.635  -3.963  20.797  0.00  0.00    +0.000 C 
ATOM     10  C   UNL     1      -6.498  -3.450  21.311  0.00  0.00    +0.000 C 
ATOM     11  C   UNL     1      -5.128  -3.986  20.975  0.00  0.00    +0.000 C 
ATOM     12  C   UNL     1      -5.166  -5.383  20.358  0.00  0.00    +0.000 C 
ATOM     13  C   UNL     1      -6.228  -5.474  19.277  0.00  0.00    +0.000 C 
ATOM     14  C   UNL     1      -7.577  -5.117  19.860  0.00  0.00    +0.000 C 
ATOM     15  O   UNL     1      -8.592  -5.736  19.549  0.00  0.00    +0.000 OA
ATOM     16  N   UNL     1      -6.567  -2.394  22.196  0.00  0.00    +0.000 N 
ATOM     17  H   UNL     1     -10.817  -0.230  23.949  0.00  0.00    +0.000 HD
ATOM     18  H   UNL     1      -9.644  -4.157  21.467  0.00  0.00    +0.000 HD
ATOM     19  H   UNL     1      -4.502  -4.018  21.875  0.00  0.00    +0.000 HD
ATOM     20  H   UNL     1      -4.649  -3.290  20.275  0.00  0.00    +0.000 HD
ATOM     21  H   UNL     1      -5.380  -6.118  21.143  0.00  0.00    +0.000 HD
ATOM     22  H   UNL     1      -4.182  -5.634  19.943  0.00  0.00    +0.000 HD
ATOM     23  H   UNL     1      -6.269  -6.496  18.883  0.00  0.00    +0.000 HD
ATOM     24  H   UNL     1      -6.016  -4.794  18.444  0.00  0.00    +0.000 HD
ATOM     25  H   UNL     1      -5.720  -2.058  22.641  0.00  0.00    +0.000 HD
ENDROOT
BRANCH   8  26
ATOM     26  C   UNL     1      -9.587  -2.719  19.847  0.00  0.00    +0.000 A 
ATOM     27  C   UNL     1      -9.077  -1.527  19.318  0.00  0.00    +0.000 A 
ATOM     28  C   UNL     1      -9.664  -0.931  18.196  0.00  0.00    +0.000 A 
ATOM     29  C   UNL     1     -10.785  -1.480  17.556  0.00  0.00    +0.000 A 
ATOM     30  C   UNL     1     -11.263  -2.690  18.088  0.00  0.00    +0.000 A 
ATOM     31  C   UNL     1     -10.677  -3.305  19.204  0.00  0.00    +0.000 A 
ATOM     32  H   UNL     1      -8.223  -1.038  19.781  0.00  0.00    +0.000 HD
ATOM     33  H   UNL     1      -9.207  -0.016  17.836  0.00  0.00    +0.000 HD
ATOM     34  H   UNL     1     -12.146  -3.169  17.676  0.00  0.00    +0.000 HD
ATOM     35  H   UNL     1     -11.103  -4.236  19.577  0.00  0.00    +0.000 HD
BRANCH  29  36
ATOM     36  N   UNL     1     -11.430  -0.841  16.504  0.00  0.00    +0.000 N 
BRANCH  36  37
ATOM     37  C   UNL     1     -12.638  -1.408  15.910  0.00  0.00    +0.000 C 
ATOM     38  H   UNL     1     -13.404  -0.680  15.636  0.00  0.00    +0.000 HD
ATOM     39  H   UNL     1     -13.102  -2.113  16.609  0.00  0.00    +0.000 HD
ATOM     40  H   UNL     1     -12.372  -1.959  15.001  0.00  0.00    +0.000 HD
ENDBRANCH  36  37
BRANCH  36  41
ATOM     41  C   UNL     1     -10.755   0.156  15.680  0.00  0.00    +0.000 C 
ATOM     42  H   UNL     1     -10.681   1.143  16.146  0.00  0.00    +0.000 HD
ATOM     43  H   UNL     1     -11.323   0.306  14.756  0.00  0.00    +0.000 HD
ATOM     44  H   UNL     1      -9.748  -0.182  15.411  0.00  0.00    +0.000 HD
ENDBRANCH  36  41
ENDBRANCH  29  36
ENDBRANCH   8  26
BRANCH   1  45
ATOM     45  S   UNL     1      -8.864   0.985  25.179  0.00  0.00    +0.000 S 
BRANCH  45  46
ATOM     46  C   UNL     1      -8.514   2.443  24.135  0.00  0.00    +0.000 C 
ATOM     47  H   UNL     1      -8.177   2.105  23.148  0.00  0.00    +0.000 HD
BRANCH  46  48
ATOM     48  C   UNL     1      -9.754   3.321  23.990  0.00  0.00    +0.000 C 
ATOM     49  H   UNL     1     -10.545   2.775  23.464  0.00  0.00    +0.000 HD
ATOM     50  H   UNL     1      -9.543   4.230  23.416  0.00  0.00    +0.000 HD
ATOM     51  H   UNL     1     -10.163   3.617  24.961  0.00  0.00    +0.000 HD
ENDBRANCH  46  48
BRANCH  46  52
ATOM     52  C   UNL     1      -7.382   3.244  24.780  0.00  0.00    +0.000 C 
ATOM     53  H   UNL     1      -7.079   2.822  25.745  0.00  0.00    +0.000 HD
ATOM     54  H   UNL     1      -7.703   4.276  24.963  0.00  0.00    +0.000 HD
ATOM     55  H   UNL     1      -6.500   3.290  24.131  0.00  0.00    +0.000 HD
ENDBRANCH  46  52
ENDBRANCH  45  46
ENDBRANCH   1  45
TORSDOF 8
ENDMDL
MODEL 8
REMARK VINA RESULT:    -7.029      4.254      8.343
REMARK INTER + INTRA:          -9.932
REMARK INTER:                  -8.958
REMARK INTRA:                  -0.974
REMARK UNBOUND:                -0.437
REMARK  Name = 
REMARK  8 active torsions:
REMARK  status: ('A' for Active; 'I' for Inactive)
REMARK    1  A    between atoms: C_1  and  C_2
REMARK    2  A    between atoms: C_2  and  C_3
REMARK    3  A    between atoms: C_2  and  S_4
REMARK    4  A    between atoms: S_4  and  C_5
REMARK    5  A    between atoms: C_12  and  C_13
REMARK    6  A    between atoms: C_16  and  N_17
REMARK    7  A    between atoms: N_17  and  C_18
REMARK    8  A    between atoms: N_17  and  C_19
REMARK                            x       y       z     vdW  Elec       q    Type
REMARK                         _______ _______ _______ _____ _____    ______ ____
ROOT
ATOM      1  C   UNL     1      -8.470  -2.158  21.610  0.00  0.00    +0.000 A 
ATOM      2  N   UNL     1      -7.923  -3.142  20.985  0.00  0.00    +0.000 NA
ATOM      3  C   UNL     1      -8.635  -3.711  19.957  0.00  0.00    +0.000 A 
ATOM      4  C   UNL     1      -9.901  -3.339  19.651  0.00  0.00    +0.000 A 
ATOM      5  C   UNL     1     -10.542  -2.304  20.479  0.00  0.00    +0.000 A 
ATOM      6  O   UNL     1     -11.734  -2.036  20.412  0.00  0.00    +0.000 OA
ATOM      7  N   UNL     1      -9.712  -1.680  21.356  0.00  0.00    +0.000 N 
ATOM      8  C   UNL     1     -10.670  -3.915  18.469  0.00  0.00    +0.000 C 
ATOM      9  C   UNL     1      -9.950  -5.096  17.839  0.00  0.00    +0.000 C 
ATOM     10  C   UNL     1      -8.683  -5.410  18.181  0.00  0.00    +0.000 C 
ATOM     11  C   UNL     1      -7.908  -6.531  17.533  0.00  0.00    +0.000 C 
ATOM     12  C   UNL     1      -8.799  -7.518  16.781  0.00  0.00    +0.000 C 
ATOM     13  C   UNL     1      -9.815  -6.790  15.918  0.00  0.00    +0.000 C 
ATOM     14  C   UNL     1     -10.652  -5.875  16.784  0.00  0.00    +0.000 C 
ATOM     15  O   UNL     1     -11.862  -5.755  16.604  0.00  0.00    +0.000 OA
ATOM     16  N   UNL     1      -8.050  -4.694  19.176  0.00  0.00    +0.000 N 
ATOM     17  H   UNL     1     -10.098  -0.953  21.938  0.00  0.00    +0.000 HD
ATOM     18  H   UNL     1     -11.632  -4.281  18.852  0.00  0.00    +0.000 HD
ATOM     19  H   UNL     1      -7.335  -7.083  18.288  0.00  0.00    +0.000 HD
ATOM     20  H   UNL     1      -7.183  -6.090  16.837  0.00  0.00    +0.000 HD
ATOM     21  H   UNL     1      -9.325  -8.153  17.505  0.00  0.00    +0.000 HD
ATOM     22  H   UNL     1      -8.183  -8.180  16.162  0.00  0.00    +0.000 HD
ATOM     23  H   UNL     1     -10.472  -7.516  15.427  0.00  0.00    +0.000 HD
ATOM     24  H   UNL     1      -9.328  -6.188  15.142  0.00  0.00    +0.000 HD
ATOM     25  H   UNL     1      -7.127  -4.978  19.487  0.00  0.00    +0.000 HD
ENDROOT
BRANCH   8  26
ATOM     26  C   UNL     1     -10.908  -2.822  17.423  0.00  0.00    +0.000 A 
ATOM     27  C   UNL     1     -12.198  -2.509  16.979  0.00  0.00    +0.000 A 
ATOM     28  C   UNL     1     -12.400  -1.546  15.984  0.00  0.00    +0.000 A 
ATOM     29  C   UNL     1     -11.337  -0.859  15.378  0.00  0.00    +0.000 A 
ATOM     30  C   UNL     1     -10.053  -1.172  15.859  0.00  0.00    +0.000 A 
ATOM     31  C   UNL     1      -9.837  -2.125  16.864  0.00  0.00    +0.000 A 
ATOM     32  H   UNL     1     -13.064  -3.020  17.392  0.00  0.00    +0.000 HD
ATOM     33  H   UNL     1     -13.427  -1.347  15.700  0.00  0.00    +0.000 HD
ATOM     34  H   UNL     1      -9.169  -0.713  15.425  0.00  0.00    +0.000 HD
ATOM     35  H   UNL     1      -8.817  -2.332  17.184  0.00  0.00    +0.000 HD
BRANCH  29  36
ATOM     36  N   UNL     1     -11.525   0.024  14.322  0.00  0.00    +0.000 N 
BRANCH  36  37
ATOM     37  C   UNL     1     -12.653  -0.132  13.407  0.00  0.00    +0.000 C 
ATOM     38  H   UNL     1     -13.129   0.801  13.097  0.00  0.00    +0.000 HD
ATOM     39  H   UNL     1     -13.430  -0.747  13.875  0.00  0.00    +0.000 HD
ATOM     40  H   UNL     1     -12.317  -0.644  12.498  0.00  0.00    +0.000 HD
ENDBRANCH  36  37
BRANCH  36  41
ATOM     41  C   UNL     1     -10.443   0.863  13.819  0.00  0.00    +0.000 C 
ATOM     42  H   UNL     1      -9.547   0.308  13.528  0.00  0.00    +0.000 HD
ATOM     43  H   UNL     1     -10.122   1.552  14.608  0.00  0.00    +0.000 HD
ATOM     44  H   UNL     1     -10.782   1.458  12.963  0.00  0.00    +0.000 HD
ENDBRANCH  36  41
ENDBRANCH  29  36
ENDBRANCH   8  26
BRANCH   1  45
ATOM     45  S   UNL     1      -7.698  -1.290  22.903  0.00  0.00    +0.000 S 
BRANCH  45  46
ATOM     46  C   UNL     1      -9.091  -1.028  24.055  0.00  0.00    +0.000 C 
ATOM     47  H   UNL     1     -10.027  -0.996  23.485  0.00  0.00    +0.000 HD
BRANCH  46  48
ATOM     48  C   UNL     1      -9.153  -2.142  25.097  0.00  0.00    +0.000 C 
ATOM     49  H   UNL     1     -10.042  -2.023  25.725  0.00  0.00    +0.000 HD
ATOM     50  H   UNL     1      -8.278  -2.129  25.757  0.00  0.00    +0.000 HD
ATOM     51  H   UNL     1      -9.218  -3.133  24.637  0.00  0.00    +0.000 HD
ENDBRANCH  46  48
BRANCH  46  52
ATOM     52  C   UNL     1      -8.904   0.322  24.748  0.00  0.00    +0.000 C 
ATOM     53  H   UNL     1      -8.326   0.231  25.674  0.00  0.00    +0.000 HD
ATOM     54  H   UNL     1      -9.877   0.752  25.013  0.00  0.00    +0.000 HD
ATOM     55  H   UNL     1      -8.398   1.043  24.096  0.00  0.00    +0.000 HD
ENDBRANCH  46  52
ENDBRANCH  45  46
ENDBRANCH   1  45
TORSDOF 8
ENDMDL
MODEL 9
REMARK VINA RESULT:    -6.880      4.246      7.056
REMARK INTER + INTRA:          -9.731
REMARK INTER:                  -8.790
REMARK INTRA:                  -0.941
REMARK UNBOUND:                -0.437
REMARK  Name = 
REMARK  8 active torsions:
REMARK  status: ('A' for Active; 'I' for Inactive)
REMARK    1  A    between atoms: C_1  and  C_2
REMARK    2  A    between atoms: C_2  and  C_3
REMARK    3  A    between atoms: C_2  and  S_4
REMARK    4  A    between atoms: S_4  and  C_5
REMARK    5  A    between atoms: C_12  and  C_13
REMARK    6  A    between atoms: C_16  and  N_17
REMARK    7  A    between atoms: N_17  and  C_18
REMARK    8  A    between atoms: N_17  and  C_19
REMARK                            x       y       z     vdW  Elec       q    Type
REMARK                         _______ _______ _______ _____ _____    ______ ____
ROOT
ATOM      1  C   UNL     1     -11.945  -2.950  13.576  0.00  0.00    +0.000 A 
ATOM      2  N   UNL     1     -11.995  -4.196  13.898  0.00  0.00    +0.000 NA
ATOM      3  C   UNL     1     -11.290  -4.588  15.012  0.00  0.00    +0.000 A 
ATOM      4  C   UNL     1     -10.491  -3.744  15.706  0.00  0.00    +0.000 A 
ATOM      5  C   UNL     1     -10.353  -2.360  15.222  0.00  0.00    +0.000 A 
ATOM      6  O   UNL     1      -9.516  -1.579  15.656  0.00  0.00    +0.000 OA
ATOM      7  N   UNL     1     -11.211  -2.015  14.226  0.00  0.00    +0.000 N 
ATOM      8  C   UNL     1      -9.765  -4.153  16.980  0.00  0.00    +0.000 C 
ATOM      9  C   UNL     1      -9.855  -5.648  17.236  0.00  0.00    +0.000 C 
ATOM     10  C   UNL     1     -10.680  -6.435  16.513  0.00  0.00    +0.000 C 
ATOM     11  C   UNL     1     -10.851  -7.911  16.778  0.00  0.00    +0.000 C 
ATOM     12  C   UNL     1      -9.728  -8.501  17.629  0.00  0.00    +0.000 C 
ATOM     13  C   UNL     1      -9.425  -7.614  18.825  0.00  0.00    +0.000 C 
ATOM     14  C   UNL     1      -9.054  -6.228  18.347  0.00  0.00    +0.000 C 
ATOM     15  O   UNL     1      -8.146  -5.592  18.875  0.00  0.00    +0.000 OA
ATOM     16  N   UNL     1     -11.402  -5.890  15.472  0.00  0.00    +0.000 N 
ATOM     17  H   UNL     1     -11.168  -1.074  13.868  0.00  0.00    +0.000 HD
ATOM     18  H   UNL     1      -8.703  -3.905  16.845  0.00  0.00    +0.000 HD
ATOM     19  H   UNL     1     -10.899  -8.463  15.832  0.00  0.00    +0.000 HD
ATOM     20  H   UNL     1     -11.812  -8.060  17.286  0.00  0.00    +0.000 HD
ATOM     21  H   UNL     1      -8.826  -8.604  17.014  0.00  0.00    +0.000 HD
ATOM     22  H   UNL     1     -10.005  -9.507  17.965  0.00  0.00    +0.000 HD
ATOM     23  H   UNL     1      -8.586  -8.032  19.392  0.00  0.00    +0.000 HD
ATOM     24  H   UNL     1     -10.288  -7.534  19.496  0.00  0.00    +0.000 HD
ATOM     25  H   UNL     1     -11.962  -6.493  14.881  0.00  0.00    +0.000 HD
ENDROOT
BRANCH   8  26
ATOM     26  C   UNL     1     -10.333  -3.377  18.173  0.00  0.00    +0.000 A 
ATOM     27  C   UNL     1      -9.539  -2.486  18.906  0.00  0.00    +0.000 A 
ATOM     28  C   UNL     1     -10.054  -1.824  20.026  0.00  0.00    +0.000 A 
ATOM     29  C   UNL     1     -11.368  -2.021  20.476  0.00  0.00    +0.000 A 
ATOM     30  C   UNL     1     -12.153  -2.899  19.709  0.00  0.00    +0.000 A 
ATOM     31  C   UNL     1     -11.655  -3.560  18.576  0.00  0.00    +0.000 A 
ATOM     32  H   UNL     1      -8.505  -2.305  18.623  0.00  0.00    +0.000 HD
ATOM     33  H   UNL     1      -9.385  -1.139  20.536  0.00  0.00    +0.000 HD
ATOM     34  H   UNL     1     -13.171  -3.136  20.002  0.00  0.00    +0.000 HD
ATOM     35  H   UNL     1     -12.310  -4.239  18.032  0.00  0.00    +0.000 HD
BRANCH  29  36
ATOM     36  N   UNL     1     -11.851  -1.442  21.643  0.00  0.00    +0.000 N 
BRANCH  36  37
ATOM     37  C   UNL     1     -12.478  -0.123  21.622  0.00  0.00    +0.000 C 
ATOM     38  H   UNL     1     -12.311   0.483  22.515  0.00  0.00    +0.000 HD
ATOM     39  H   UNL     1     -13.563  -0.228  21.504  0.00  0.00    +0.000 HD
ATOM     40  H   UNL     1     -12.099   0.447  20.767  0.00  0.00    +0.000 HD
ENDBRANCH  36  37
BRANCH  36  41
ATOM     41  C   UNL     1     -11.411  -1.887  22.961  0.00  0.00    +0.000 C 
ATOM     42  H   UNL     1     -10.707  -2.723  22.937  0.00  0.00    +0.000 HD
ATOM     43  H   UNL     1     -12.276  -2.243  23.531  0.00  0.00    +0.000 HD
ATOM     44  H   UNL     1     -10.954  -1.059  23.516  0.00  0.00    +0.000 HD
ENDBRANCH  36  41
ENDBRANCH  29  36
ENDBRANCH   8  26
BRANCH   1  45
ATOM     45  S   UNL     1     -12.807  -2.269  12.229  0.00  0.00    +0.000 S 
BRANCH  45  46
ATOM     46  C   UNL     1     -11.668  -2.620  10.846  0.00  0.00    +0.000 C 
ATOM     47  H   UNL     1     -10.635  -2.533  11.200  0.00  0.00    +0.000 HD
BRANCH  46  48
ATOM     48  C   UNL     1     -11.910  -4.018  10.282  0.00  0.00    +0.000 C 
ATOM     49  H   UNL     1     -12.426  -3.952   9.317  0.00  0.00    +0.000 HD
ATOM     50  H   UNL     1     -12.535  -4.622  10.950  0.00  0.00    +0.000 HD
ATOM     51  H   UNL     1     -10.975  -4.559  10.107  0.00  0.00    +0.000 HD
ENDBRANCH  46  48
BRANCH  46  52
ATOM     52  C   UNL     1     -11.890  -1.574   9.753  0.00  0.00    +0.000 C 
ATOM     53  H   UNL     1     -12.129  -2.033   8.787  0.00  0.00    +0.000 HD
ATOM     54  H   UNL     1     -10.984  -0.973   9.612  0.00  0.00    +0.000 HD
ATOM     55  H   UNL     1     -12.699  -0.882  10.016  0.00  0.00    +0.000 HD
ENDBRANCH  46  52
ENDBRANCH  45  46
ENDBRANCH   1  45
TORSDOF 8
ENDMDL
