REMARK  Name = 
REMARK  4 active torsions:
REMARK  status: ('A' for Active; 'I' for Inactive)
REMARK    1  A    between atoms: C_2  and  C_4
REMARK    2  A    between atoms: N_7  and  C_8
REMARK    3  A    between atoms: C_11  and  N_12
REMARK    4  A    between atoms: C_13  and  C_15
REMARK                            x       y       z     vdW  Elec       q    Type
REMARK                         _______ _______ _______ _____ _____    ______ ____
ROOT
ATOM      1  C   UNL     1       0.108  -0.251   2.048  0.00  0.00    +0.000 A 
ATOM      2  C   UNL     1      -0.625  -0.788   0.999  0.00  0.00    +0.000 A 
ATOM      3  C   UNL     1      -0.273  -0.482  -0.325  0.00  0.00    +0.000 A 
ATOM      4  C   UNL     1       0.769   0.407  -0.624  0.00  0.00    +0.000 A 
ATOM      5  C   UNL     1       1.464   0.987   0.440  0.00  0.00    +0.000 A 
ATOM      6  C   UNL     1       1.150   0.647   1.766  0.00  0.00    +0.000 A 
ATOM      7  H   UNL     1      -1.449  -1.477   1.151  0.00  0.00    +0.000 HD
ATOM      8  H   UNL     1      -0.849  -0.957  -1.112  0.00  0.00    +0.000 HD
ATOM      9  H   UNL     1       2.275   1.693   0.258  0.00  0.00    +0.000 HD
ATOM     10  H   UNL     1       1.727   1.111   2.565  0.00  0.00    +0.000 HD
ENDROOT
BRANCH   1  14
ATOM     11  C   UNL     1      -2.440  -1.081   5.259  0.00  0.00    +0.000 C 
ATOM     12  C   UNL     1      -2.051  -2.138   4.233  0.00  0.00    +0.000 C 
ATOM     13  C   UNL     1      -0.610  -2.011   3.740  0.00  0.00    +0.000 C 
ATOM     14  N   UNL     1      -0.156  -0.594   3.469  0.00  0.00    +0.000 NA
ATOM     15  C   UNL     1      -0.790   0.553   4.213  0.00  0.00    +0.000 C 
ATOM     16  C   UNL     1      -2.229   0.291   4.627  0.00  0.00    +0.000 C 
ATOM     17  H   UNL     1      -3.506  -1.189   5.503  0.00  0.00    +0.000 HD
ATOM     18  H   UNL     1      -2.736  -2.072   3.377  0.00  0.00    +0.000 HD
ATOM     19  H   UNL     1      -2.190  -3.143   4.652  0.00  0.00    +0.000 HD
ATOM     20  H   UNL     1      -0.458  -2.628   2.847  0.00  0.00    +0.000 HD
ATOM     21  H   UNL     1       0.071  -2.406   4.502  0.00  0.00    +0.000 HD
ATOM     22  H   UNL     1       0.799  -0.618   3.858  0.00  0.00    +0.000 HD
ATOM     23  H   UNL     1      -0.743   1.459   3.599  0.00  0.00    +0.000 HD
ATOM     24  H   UNL     1      -0.143   0.747   5.073  0.00  0.00    +0.000 HD
ATOM     25  H   UNL     1      -2.876   0.384   3.745  0.00  0.00    +0.000 HD
ATOM     26  H   UNL     1      -2.542   1.077   5.325  0.00  0.00    +0.000 HD
BRANCH  11  28
ATOM     27  N   UNL     1      -2.029  -2.278   7.358  0.00  0.00    +0.000 N 
ATOM     28  C   UNL     1      -1.660  -1.240   6.561  0.00  0.00    +0.000 C 
ATOM     29  O   UNL     1      -0.700  -0.544   6.854  0.00  0.00    +0.000 OA
ATOM     30  H   UNL     1      -1.564  -2.328   8.260  0.00  0.00    +0.000 HD
ATOM     31  H   UNL     1      -2.961  -2.672   7.331  0.00  0.00    +0.000 HD
ENDBRANCH  11  28
ENDBRANCH   1  14
BRANCH   4  32
ATOM     32  N   UNL     1       1.155   0.750  -1.944  0.00  0.00    +0.000 N 
ATOM     33  C   UNL     1       0.665   0.189  -3.118  0.00  0.00    +0.000 C 
ATOM     34  O   UNL     1      -0.178  -0.707  -3.171  0.00  0.00    +0.000 OA
ATOM     35  H   UNL     1       1.842   1.489  -2.028  0.00  0.00    +0.000 HD
BRANCH  33  36
ATOM     36  C   UNL     1       1.191   0.722  -4.416  0.00  0.00    +0.000 A 
ATOM     37  C   UNL     1       2.398   1.422  -4.513  0.00  0.00    +0.000 A 
ATOM     38  C   UNL     1       2.806   1.987  -5.732  0.00  0.00    +0.000 A 
ATOM     39  C   UNL     1       2.044   1.757  -6.892  0.00  0.00    +0.000 A 
ATOM     40  C   UNL     1       2.145   2.179  -8.245  0.00  0.00    +0.000 A 
ATOM     41  C   UNL     1       1.251   1.429  -8.975  0.00  0.00    +0.000 A 
ATOM     42  N   UNL     1       0.497   0.700  -8.093  0.00  0.00    +0.000 N 
ATOM     43  C   UNL     1       0.926   0.931  -6.804  0.00  0.00    +0.000 A 
ATOM     44  C   UNL     1       0.442   0.452  -5.580  0.00  0.00    +0.000 A 
ATOM     45  H   UNL     1       3.067   1.529  -3.666  0.00  0.00    +0.000 HD
ATOM     46  H   UNL     1       3.731   2.552  -5.796  0.00  0.00    +0.000 HD
ATOM     47  H   UNL     1       2.847   2.895  -8.651  0.00  0.00    +0.000 HD
ATOM     48  H   UNL     1       1.092   1.351 -10.043  0.00  0.00    +0.000 HD
ATOM     49  H   UNL     1      -0.226   0.043  -8.352  0.00  0.00    +0.000 HD
ATOM     50  H   UNL     1      -0.477  -0.127  -5.535  0.00  0.00    +0.000 HD
ENDBRANCH  33  36
ENDBRANCH   4  32
TORSDOF 4
