REMARK  Name = 
REMARK  5 active torsions:
REMARK  status: ('A' for Active; 'I' for Inactive)
REMARK    1  A    between atoms: C_1  and  C_2
REMARK    2  A    between atoms: C_5  and  S_6
REMARK    3  A    between atoms: S_6  and  N_9
REMARK    4  A    between atoms: C_13  and  N_14
REMARK    5  A    between atoms: C_15  and  C_17
REMARK                            x       y       z     vdW  Elec       q    Type
REMARK                         _______ _______ _______ _____ _____    ______ ____
ROOT
ATOM      1  N   UNL     1      -2.646  -2.196   1.522  0.00  0.00    +0.000 NA
ATOM      2  C   UNL     1      -2.881  -1.176   2.551  0.00  0.00    +0.000 C 
ATOM      3  C   UNL     1      -3.322   0.057   1.753  0.00  0.00    +0.000 C 
ATOM      4  C   UNL     1      -2.607   1.424   1.915  0.00  0.00    +0.000 C 
ATOM      5  C   UNL     1      -1.484   0.855   1.017  0.00  0.00    +0.000 C 
ATOM      6  C   UNL     1      -2.570  -0.087   0.410  0.00  0.00    +0.000 C 
ATOM      7  C   UNL     1      -2.230  -1.560   0.263  0.00  0.00    +0.000 C 
ATOM      8  H   UNL     1      -1.967  -0.985   3.122  0.00  0.00    +0.000 HD
ATOM      9  H   UNL     1      -3.675  -1.488   3.235  0.00  0.00    +0.000 HD
ATOM     10  H   UNL     1      -4.412   0.119   1.650  0.00  0.00    +0.000 HD
ATOM     11  H   UNL     1      -2.324   1.697   2.934  0.00  0.00    +0.000 HD
ATOM     12  H   UNL     1      -3.169   2.257   1.472  0.00  0.00    +0.000 HD
ATOM     13  H   UNL     1      -0.705   0.351   1.603  0.00  0.00    +0.000 HD
ATOM     14  H   UNL     1      -3.101   0.340  -0.452  0.00  0.00    +0.000 HD
ATOM     15  H   UNL     1      -1.164  -1.682   0.067  0.00  0.00    +0.000 HD
ATOM     16  H   UNL     1      -2.796  -2.002  -0.562  0.00  0.00    +0.000 HD
ENDROOT
BRANCH   5  17
ATOM     17  N   UNL     1      -0.899   1.790   0.050  0.00  0.00    +0.000 N 
ATOM     18  C   UNL     1       0.121   1.397  -0.794  0.00  0.00    +0.000 C 
ATOM     19  O   UNL     1       0.598   0.266  -0.760  0.00  0.00    +0.000 OA
ATOM     20  H   UNL     1      -1.274   2.722  -0.061  0.00  0.00    +0.000 HD
BRANCH  18  21
ATOM     21  C   UNL     1       0.567   2.392  -1.739  0.00  0.00    +0.000 A 
ATOM     22  C   UNL     1       0.209   3.715  -1.931  0.00  0.00    +0.000 A 
ATOM     23  C   UNL     1       0.905   4.207  -3.066  0.00  0.00    +0.000 A 
ATOM     24  C   UNL     1       0.905   5.439  -3.746  0.00  0.00    +0.000 A 
ATOM     25  C   UNL     1       1.713   5.591  -4.877  0.00  0.00    +0.000 A 
ATOM     26  C   UNL     1       2.511   4.541  -5.313  0.00  0.00    +0.000 A 
ATOM     27  F   UNL     1       3.271   4.712  -6.404  0.00  0.00    +0.000 F 
ATOM     28  C   UNL     1       2.542   3.312  -4.653  0.00  0.00    +0.000 A 
ATOM     29  C   UNL     1       1.718   3.174  -3.531  0.00  0.00    +0.000 A 
ATOM     30  N   UNL     1       1.516   2.098  -2.696  0.00  0.00    +0.000 N 
ATOM     31  H   UNL     1      -0.502   4.281  -1.345  0.00  0.00    +0.000 HD
ATOM     32  H   UNL     1       0.279   6.258  -3.405  0.00  0.00    +0.000 HD
ATOM     33  H   UNL     1       1.716   6.529  -5.425  0.00  0.00    +0.000 HD
ATOM     34  H   UNL     1       3.174   2.509  -5.013  0.00  0.00    +0.000 HD
ATOM     35  H   UNL     1       1.963   1.196  -2.783  0.00  0.00    +0.000 HD
ENDBRANCH  18  21
ENDBRANCH   5  17
BRANCH   1  36
ATOM     36  S   UNL     1      -2.133  -3.745   1.906  0.00  0.00    +0.000 S 
ATOM     37  O   UNL     1      -2.443  -4.596   0.776  0.00  0.00    +0.000 OA
ATOM     38  O   UNL     1      -2.621  -4.060   3.233  0.00  0.00    +0.000 OA
BRANCH  36  42
ATOM     39  C   UNL     1       2.435  -3.520   2.102  0.00  0.00    +0.000 A 
ATOM     40  C   UNL     1       1.671  -3.348   3.265  0.00  0.00    +0.000 A 
ATOM     41  C   UNL     1       0.274  -3.402   3.215  0.00  0.00    +0.000 A 
ATOM     42  C   UNL     1      -0.360  -3.622   1.992  0.00  0.00    +0.000 A 
ATOM     43  C   UNL     1       0.394  -3.847   0.834  0.00  0.00    +0.000 A 
ATOM     44  C   UNL     1       1.786  -3.782   0.889  0.00  0.00    +0.000 A 
ATOM     45  H   UNL     1       2.161  -3.174   4.221  0.00  0.00    +0.000 HD
ATOM     46  H   UNL     1      -0.304  -3.286   4.128  0.00  0.00    +0.000 HD
ATOM     47  H   UNL     1      -0.093  -4.066  -0.114  0.00  0.00    +0.000 HD
ATOM     48  H   UNL     1       2.364  -3.940  -0.020  0.00  0.00    +0.000 HD
BRANCH  39  49
ATOM     49  C   UNL     1       3.933  -3.435   2.137  0.00  0.00    +0.000 C 
ATOM     50  H   UNL     1       4.298  -3.183   3.137  0.00  0.00    +0.000 HD
ATOM     51  H   UNL     1       4.281  -2.655   1.449  0.00  0.00    +0.000 HD
ATOM     52  H   UNL     1       4.375  -4.393   1.846  0.00  0.00    +0.000 HD
ENDBRANCH  39  49
ENDBRANCH  36  42
ENDBRANCH   1  36
TORSDOF 5
