
 OpenBabel01112423143D

 38 41  0  0  1  0  0  0  0  0999 V2000
    5.7449    1.5085    0.0830 F   0  0  0  0  0  0  0  0  0  0  0  0
    5.8003    0.8484   -1.0808 C   0  0  0  0  0  0  0  0  0  0  0  0
    6.7871   -0.1235   -1.2429 C   0  0  0  0  0  0  0  0  0  0  0  0
    6.8946   -0.8139   -2.4520 C   0  0  0  0  0  0  0  0  0  0  0  0
    6.0041   -0.5398   -3.4889 C   0  0  0  0  0  0  0  0  0  0  0  0
    6.1555   -1.4598   -5.1304 Br  0  0  0  0  0  0  0  0  0  0  0  0
    5.0106    0.4300   -3.3301 C   0  0  0  0  0  0  0  0  0  0  0  0
    4.9214    1.1335   -2.1237 C   0  0  0  0  0  0  0  0  0  0  0  0
    3.9257    2.2113   -2.0521 C   0  0  0  0  0  0  0  0  0  0  0  0
    3.7267    2.9501   -1.0061 N   0  0  0  0  0  0  0  0  0  0  0  0
    2.7348    3.9282   -1.2409 N   0  0  0  0  0  0  0  0  0  0  0  0
    1.4914    3.8223   -1.9305 C   0  0  0  0  0  0  0  0  0  0  0  0
    0.6370    2.4860   -2.4841 S   0  5  0  0  0  0  0  0  0  0  0  0
    0.9997    5.1301   -2.0931 N   0  3  0  0  0  0  0  0  0  0  0  0
    1.8578    6.0875   -1.5653 N   0  0  0  0  0  0  0  0  0  0  0  0
    2.8978    5.3449   -0.7935 C   0  0  1  0  0  0  0  0  0  0  0  0
    2.6956    5.4532    0.7323 C   0  0  2  0  0  0  0  0  0  0  0  0
    2.2656    6.8697    1.0994 N   0  0  0  0  0  0  0  0  0  0  0  0
    3.0116    7.3401    2.0165 N   0  0  0  0  0  0  0  0  0  0  0  0
    3.9687    6.4233    2.3000 C   0  0  0  0  0  0  0  0  0  0  0  0
    3.8969    5.3184    1.5779 C   0  0  0  0  0  0  0  0  0  0  0  0
    4.8146    4.2654    2.0272 C   0  0  0  0  0  0  0  0  0  0  0  0
    5.6974    5.0567    3.0244 C   0  0  0  0  0  0  0  0  0  0  0  0
    4.9205    6.3321    3.4234 C   0  0  0  0  0  0  0  0  0  0  0  0
    7.4709   -0.3337   -0.4251 H   0  0  0  0  0  0  0  0  0  0  0  0
    7.6763   -1.5609   -2.5782 H   0  0  0  0  0  0  0  0  0  0  0  0
    4.3201    0.6372   -4.1445 H   0  0  0  0  0  0  0  0  0  0  0  0
    3.3881    2.3973   -2.9965 H   0  0  0  0  0  0  0  0  0  0  0  0
    0.1128    5.2703   -2.5702 H   0  0  0  0  0  0  0  0  0  0  0  0
    1.3408    6.7315   -0.9632 H   0  0  0  0  0  0  0  0  0  0  0  0
    3.8878    5.6950   -1.1050 H   0  0  0  0  0  0  0  0  0  0  0  0
    1.9052    4.7738    1.0734 H   0  0  0  0  0  0  0  0  0  0  0  0
    5.4222    3.8566    1.2158 H   0  0  0  0  0  0  0  0  0  0  0  0
    4.2764    3.4568    2.5298 H   0  0  0  0  0  0  0  0  0  0  0  0
    6.6353    5.3472    2.5310 H   0  0  0  0  0  0  0  0  0  0  0  0
    5.9701    4.4537    3.8971 H   0  0  0  0  0  0  0  0  0  0  0  0
    5.5825    7.1971    3.5096 H   0  0  0  0  0  0  0  0  0  0  0  0
    4.3888    6.1848    4.3699 H   0  0  0  0  0  0  0  0  0  0  0  0
  1  2  1  0  0  0  0
  2  3  1  0  0  0  0
  2  8  2  0  0  0  0
  3  4  2  0  0  0  0
  3 25  1  0  0  0  0
  4  5  1  0  0  0  0
  4 26  1  0  0  0  0
  5  6  1  0  0  0  0
  5  7  2  0  0  0  0
  7  8  1  0  0  0  0
  7 27  1  0  0  0  0
  8  9  1  0  0  0  0
  9 10  2  0  0  0  0
  9 28  1  0  0  0  0
 10 11  1  0  0  0  0
 11 12  1  0  0  0  0
 11 16  1  0  0  0  0
 12 13  1  0  0  0  0
 12 14  2  0  0  0  0
 14 15  1  0  0  0  0
 14 29  1  0  0  0  0
 15 16  1  0  0  0  0
 15 30  1  0  0  0  0
 16 31  1  6  0  0  0
 17 18  1  0  0  0  0
 17 21  1  0  0  0  0
 17 16  1  0  0  0  0
 17 32  1  1  0  0  0
 18 19  2  0  0  0  0
 19 20  1  0  0  0  0
 20 21  2  0  0  0  0
 20 24  1  0  0  0  0
 21 22  1  0  0  0  0
 22 23  1  0  0  0  0
 22 33  1  0  0  0  0
 22 34  1  0  0  0  0
 23 24  1  0  0  0  0
 23 35  1  0  0  0  0
 23 36  1  0  0  0  0
 24 37  1  0  0  0  0
 24 38  1  0  0  0  0
M  CHG  2  13  -1  14   1
M  END
$$$$
