MODEL 1
REMARK VINA RESULT:    -9.447      0.000      0.000
REMARK INTER + INTRA:         -13.466
REMARK INTER:                 -12.485
REMARK INTRA:                  -0.981
REMARK UNBOUND:                -0.981
REMARK  Name = 
REMARK  7 active torsions:
REMARK  status: ('A' for Active; 'I' for Inactive)
REMARK    1  A    between atoms: C_1  and  S_2
REMARK    2  A    between atoms: S_2  and  C_3
REMARK    3  A    between atoms: C_6  and  C_7
REMARK    4  A    between atoms: C_8  and  C_9
REMARK    5  A    between atoms: N_11  and  C_12
REMARK    6  A    between atoms: C_17  and  C_18
REMARK    7  A    between atoms: C_19  and  C_20
REMARK                            x       y       z     vdW  Elec       q    Type
REMARK                         _______ _______ _______ _____ _____    ______ ____
ROOT
ATOM      1  C   UNL     1     -10.391  -4.629  18.203  0.00  0.00    +0.000 C 
ATOM      2  C   UNL     1      -9.120  -5.470  18.390  0.00  0.00    +0.000 C 
ATOM      3  C   UNL     1      -8.220  -5.122  19.357  0.00  0.00    +0.000 C 
ATOM      4  N   UNL     1      -8.411  -3.977  20.123  0.00  0.00    +0.000 N 
ATOM      5  C   UNL     1      -9.465  -3.164  20.005  0.00  0.00    +0.000 A 
ATOM      6  N   UNL     1      -9.802  -2.092  20.677  0.00  0.00    +0.000 NA
ATOM      7  C   UNL     1     -11.023  -1.775  20.143  0.00  0.00    +0.000 A 
ATOM      8  N   UNL     1     -11.474  -2.605  19.191  0.00  0.00    +0.000 NA
ATOM      9  N   UNL     1     -10.424  -3.446  19.078  0.00  0.00    +0.000 N 
ATOM     10  H   UNL     1     -11.213  -5.252  18.585  0.00  0.00    +0.000 HD
ATOM     11  H   UNL     1      -7.725  -3.778  20.846  0.00  0.00    +0.000 HD
ATOM     12  H   UNL     1     -11.608  -0.923  20.467  0.00  0.00    +0.000 HD
ENDROOT
BRANCH   1  16
ATOM     13  C   UNL     1     -11.438  -3.596  14.099  0.00  0.00    +0.000 A 
ATOM     14  C   UNL     1     -11.901  -4.771  14.689  0.00  0.00    +0.000 A 
ATOM     15  C   UNL     1     -11.567  -5.072  16.011  0.00  0.00    +0.000 A 
ATOM     16  C   UNL     1     -10.749  -4.214  16.772  0.00  0.00    +0.000 A 
ATOM     17  C   UNL     1     -10.306  -3.024  16.179  0.00  0.00    +0.000 A 
ATOM     18  C   UNL     1     -10.636  -2.730  14.850  0.00  0.00    +0.000 A 
ATOM     19  H   UNL     1     -12.514  -5.472  14.129  0.00  0.00    +0.000 HD
ATOM     20  H   UNL     1     -11.961  -5.989  16.449  0.00  0.00    +0.000 HD
ATOM     21  H   UNL     1      -9.684  -2.317  16.728  0.00  0.00    +0.000 HD
ATOM     22  H   UNL     1     -10.257  -1.812  14.401  0.00  0.00    +0.000 HD
BRANCH  13  23
ATOM     23  S   UNL     1     -11.781  -3.222  12.390  0.00  0.00    +0.000 S 
BRANCH  23  24
ATOM     24  C   UNL     1     -10.363  -2.164  11.992  0.00  0.00    +0.000 C 
ATOM     25  H   UNL     1     -10.351  -1.974  10.915  0.00  0.00    +0.000 HD
ATOM     26  H   UNL     1      -9.430  -2.663  12.266  0.00  0.00    +0.000 HD
ATOM     27  H   UNL     1     -10.424  -1.200  12.504  0.00  0.00    +0.000 HD
ENDBRANCH  23  24
ENDBRANCH  13  23
ENDBRANCH   1  16
BRANCH   2  28
ATOM     28  C   UNL     1      -8.899  -6.692  17.528  0.00  0.00    +0.000 C 
ATOM     29  O   UNL     1      -8.115  -6.636  16.585  0.00  0.00    +0.000 OA
ATOM     30  N   UNL     1      -9.667  -7.807  17.812  0.00  0.00    +0.000 N 
ATOM     31  H   UNL     1     -10.473  -7.713  18.408  0.00  0.00    +0.000 HD
BRANCH  30  32
ATOM     32  C   UNL     1      -9.505  -9.109  17.262  0.00  0.00    +0.000 A 
ATOM     33  C   UNL     1      -9.879  -9.402  15.944  0.00  0.00    +0.000 A 
ATOM     34  C   UNL     1      -9.635 -10.659  15.384  0.00  0.00    +0.000 A 
ATOM     35  C   UNL     1      -9.003 -11.643  16.133  0.00  0.00    +0.000 A 
ATOM     36  C   UNL     1      -8.642 -11.379  17.452  0.00  0.00    +0.000 A 
ATOM     37  C   UNL     1      -8.894 -10.122  18.034  0.00  0.00    +0.000 A 
ATOM     38  H   UNL     1     -10.347  -8.659  15.305  0.00  0.00    +0.000 HD
ATOM     39  H   UNL     1      -9.932 -10.859  14.359  0.00  0.00    +0.000 HD
ATOM     40  H   UNL     1      -8.802 -12.617  15.696  0.00  0.00    +0.000 HD
ATOM     41  H   UNL     1      -8.168 -12.169  18.031  0.00  0.00    +0.000 HD
BRANCH  37  42
ATOM     42  C   UNL     1      -8.561  -9.945  19.492  0.00  0.00    +0.000 C 
ATOM     43  H   UNL     1      -9.004 -10.738  20.106  0.00  0.00    +0.000 HD
ATOM     44  H   UNL     1      -8.967  -8.995  19.852  0.00  0.00    +0.000 HD
ATOM     45  H   UNL     1      -7.480  -9.978  19.654  0.00  0.00    +0.000 HD
ENDBRANCH  37  42
ENDBRANCH  30  32
ENDBRANCH   2  28
BRANCH   3  46
ATOM     46  C   UNL     1      -6.985  -5.903  19.776  0.00  0.00    +0.000 C 
ATOM     47  H   UNL     1      -6.227  -5.322  20.298  0.00  0.00    +0.000 HD
ATOM     48  H   UNL     1      -6.478  -6.293  18.884  0.00  0.00    +0.000 HD
ATOM     49  H   UNL     1      -7.276  -6.756  20.394  0.00  0.00    +0.000 HD
ENDBRANCH   3  46
TORSDOF 7
ENDMDL
MODEL 2
REMARK VINA RESULT:    -9.080      1.729      2.456
REMARK INTER + INTRA:         -12.980
REMARK INTER:                 -12.224
REMARK INTRA:                  -0.757
REMARK UNBOUND:                -0.981
REMARK  Name = 
REMARK  7 active torsions:
REMARK  status: ('A' for Active; 'I' for Inactive)
REMARK    1  A    between atoms: C_1  and  S_2
REMARK    2  A    between atoms: S_2  and  C_3
REMARK    3  A    between atoms: C_6  and  C_7
REMARK    4  A    between atoms: C_8  and  C_9
REMARK    5  A    between atoms: N_11  and  C_12
REMARK    6  A    between atoms: C_17  and  C_18
REMARK    7  A    between atoms: C_19  and  C_20
REMARK                            x       y       z     vdW  Elec       q    Type
REMARK                         _______ _______ _______ _____ _____    ______ ____
ROOT
ATOM      1  C   UNL     1      -8.623  -4.481  20.030  0.00  0.00    +0.000 C 
ATOM      2  C   UNL     1      -7.544  -5.409  19.452  0.00  0.00    +0.000 C 
ATOM      3  C   UNL     1      -6.257  -5.303  19.897  0.00  0.00    +0.000 C 
ATOM      4  N   UNL     1      -5.905  -4.318  20.815  0.00  0.00    +0.000 N 
ATOM      5  C   UNL     1      -6.765  -3.443  21.342  0.00  0.00    +0.000 A 
ATOM      6  N   UNL     1      -6.594  -2.506  22.240  0.00  0.00    +0.000 NA
ATOM      7  C   UNL     1      -7.865  -2.027  22.420  0.00  0.00    +0.000 A 
ATOM      8  N   UNL     1      -8.821  -2.633  21.700  0.00  0.00    +0.000 NA
ATOM      9  N   UNL     1      -8.076  -3.490  20.970  0.00  0.00    +0.000 N 
ATOM     10  H   UNL     1      -9.247  -5.123  20.671  0.00  0.00    +0.000 HD
ATOM     11  H   UNL     1      -4.939  -4.299  21.131  0.00  0.00    +0.000 HD
ATOM     12  H   UNL     1      -8.104  -1.224  23.106  0.00  0.00    +0.000 HD
ENDROOT
BRANCH   1  16
ATOM     13  C   UNL     1     -11.314  -2.622  17.148  0.00  0.00    +0.000 A 
ATOM     14  C   UNL     1     -11.581  -3.884  17.677  0.00  0.00    +0.000 A 
ATOM     15  C   UNL     1     -10.714  -4.452  18.612  0.00  0.00    +0.000 A 
ATOM     16  C   UNL     1      -9.549  -3.779  19.032  0.00  0.00    +0.000 A 
ATOM     17  C   UNL     1      -9.299  -2.502  18.513  0.00  0.00    +0.000 A 
ATOM     18  C   UNL     1     -10.168  -1.939  17.568  0.00  0.00    +0.000 A 
ATOM     19  H   UNL     1     -12.455  -4.447  17.361  0.00  0.00    +0.000 HD
ATOM     20  H   UNL     1     -10.961  -5.432  19.020  0.00  0.00    +0.000 HD
ATOM     21  H   UNL     1      -8.421  -1.931  18.815  0.00  0.00    +0.000 HD
ATOM     22  H   UNL     1      -9.938  -0.957  17.158  0.00  0.00    +0.000 HD
BRANCH  13  23
ATOM     23  S   UNL     1     -12.359  -1.905  15.895  0.00  0.00    +0.000 S 
BRANCH  23  24
ATOM     24  C   UNL     1     -11.795  -2.819  14.433  0.00  0.00    +0.000 C 
ATOM     25  H   UNL     1     -12.247  -3.815  14.440  0.00  0.00    +0.000 HD
ATOM     26  H   UNL     1     -10.708  -2.931  14.452  0.00  0.00    +0.000 HD
ATOM     27  H   UNL     1     -12.093  -2.320  13.507  0.00  0.00    +0.000 HD
ENDBRANCH  23  24
ENDBRANCH  13  23
ENDBRANCH   1  16
BRANCH   2  28
ATOM     28  C   UNL     1      -7.927  -6.452  18.426  0.00  0.00    +0.000 C 
ATOM     29  O   UNL     1      -7.468  -6.381  17.290  0.00  0.00    +0.000 OA
ATOM     30  N   UNL     1      -8.852  -7.403  18.815  0.00  0.00    +0.000 N 
ATOM     31  H   UNL     1      -9.391  -7.256  19.652  0.00  0.00    +0.000 HD
BRANCH  30  32
ATOM     32  C   UNL     1      -9.220  -8.572  18.091  0.00  0.00    +0.000 A 
ATOM     33  C   UNL     1      -9.930  -8.497  16.885  0.00  0.00    +0.000 A 
ATOM     34  C   UNL     1     -10.208  -9.643  16.136  0.00  0.00    +0.000 A 
ATOM     35  C   UNL     1      -9.773 -10.886  16.578  0.00  0.00    +0.000 A 
ATOM     36  C   UNL     1      -9.084 -10.985  17.785  0.00  0.00    +0.000 A 
ATOM     37  C   UNL     1      -8.808  -9.840  18.557  0.00  0.00    +0.000 A 
ATOM     38  H   UNL     1     -10.265  -7.548  16.478  0.00  0.00    +0.000 HD
ATOM     39  H   UNL     1     -10.757  -9.557  15.203  0.00  0.00    +0.000 HD
ATOM     40  H   UNL     1      -9.979 -11.776  15.992  0.00  0.00    +0.000 HD
ATOM     41  H   UNL     1      -8.770 -11.969  18.126  0.00  0.00    +0.000 HD
BRANCH  37  42
ATOM     42  C   UNL     1      -8.143 -10.040  19.893  0.00  0.00    +0.000 C 
ATOM     43  H   UNL     1      -7.980  -9.086  20.409  0.00  0.00    +0.000 HD
ATOM     44  H   UNL     1      -7.161 -10.501  19.753  0.00  0.00    +0.000 HD
ATOM     45  H   UNL     1      -8.761 -10.659  20.549  0.00  0.00    +0.000 HD
ENDBRANCH  37  42
ENDBRANCH  30  32
ENDBRANCH   2  28
BRANCH   3  46
ATOM     46  C   UNL     1      -5.093  -6.213  19.545  0.00  0.00    +0.000 C 
ATOM     47  H   UNL     1      -4.298  -5.745  18.968  0.00  0.00    +0.000 HD
ATOM     48  H   UNL     1      -5.450  -7.038  18.915  0.00  0.00    +0.000 HD
ATOM     49  H   UNL     1      -4.671  -6.648  20.455  0.00  0.00    +0.000 HD
ENDBRANCH   3  46
TORSDOF 7
ENDMDL
MODEL 3
REMARK VINA RESULT:    -8.906      2.308      5.980
REMARK INTER + INTRA:         -12.750
REMARK INTER:                 -12.597
REMARK INTRA:                  -0.154
REMARK UNBOUND:                -0.981
REMARK  Name = 
REMARK  7 active torsions:
REMARK  status: ('A' for Active; 'I' for Inactive)
REMARK    1  A    between atoms: C_1  and  S_2
REMARK    2  A    between atoms: S_2  and  C_3
REMARK    3  A    between atoms: C_6  and  C_7
REMARK    4  A    between atoms: C_8  and  C_9
REMARK    5  A    between atoms: N_11  and  C_12
REMARK    6  A    between atoms: C_17  and  C_18
REMARK    7  A    between atoms: C_19  and  C_20
REMARK                            x       y       z     vdW  Elec       q    Type
REMARK                         _______ _______ _______ _____ _____    ______ ____
ROOT
ATOM      1  C   UNL     1      -8.791  -7.479  16.613  0.00  0.00    +0.000 C 
ATOM      2  C   UNL     1      -8.824  -7.474  18.148  0.00  0.00    +0.000 C 
ATOM      3  C   UNL     1      -9.028  -8.646  18.820  0.00  0.00    +0.000 C 
ATOM      4  N   UNL     1      -9.275  -9.826  18.126  0.00  0.00    +0.000 N 
ATOM      5  C   UNL     1      -9.305  -9.919  16.793  0.00  0.00    +0.000 A 
ATOM      6  N   UNL     1      -9.475 -10.954  16.009  0.00  0.00    +0.000 NA
ATOM      7  C   UNL     1      -9.307 -10.414  14.761  0.00  0.00    +0.000 A 
ATOM      8  N   UNL     1      -9.019  -9.104  14.728  0.00  0.00    +0.000 NA
ATOM      9  N   UNL     1      -9.091  -8.802  16.042  0.00  0.00    +0.000 N 
ATOM     10  H   UNL     1      -7.737  -7.318  16.342  0.00  0.00    +0.000 HD
ATOM     11  H   UNL     1      -9.395 -10.674  18.674  0.00  0.00    +0.000 HD
ATOM     12  H   UNL     1      -9.383 -10.994  13.850  0.00  0.00    +0.000 HD
ENDROOT
BRANCH   1  16
ATOM     13  C   UNL     1     -11.031  -4.381  14.519  0.00  0.00    +0.000 A 
ATOM     14  C   UNL     1      -9.725  -4.700  14.154  0.00  0.00    +0.000 A 
ATOM     15  C   UNL     1      -9.033  -5.708  14.827  0.00  0.00    +0.000 A 
ATOM     16  C   UNL     1      -9.625  -6.414  15.893  0.00  0.00    +0.000 A 
ATOM     17  C   UNL     1     -10.946  -6.103  16.241  0.00  0.00    +0.000 A 
ATOM     18  C   UNL     1     -11.634  -5.084  15.567  0.00  0.00    +0.000 A 
ATOM     19  H   UNL     1      -9.223  -4.163  13.353  0.00  0.00    +0.000 HD
ATOM     20  H   UNL     1      -8.020  -5.946  14.504  0.00  0.00    +0.000 HD
ATOM     21  H   UNL     1     -11.457  -6.628  17.047  0.00  0.00    +0.000 HD
ATOM     22  H   UNL     1     -12.651  -4.841  15.873  0.00  0.00    +0.000 HD
BRANCH  13  23
ATOM     23  S   UNL     1     -11.912  -3.046  13.731  0.00  0.00    +0.000 S 
BRANCH  23  24
ATOM     24  C   UNL     1     -11.739  -3.520  11.988  0.00  0.00    +0.000 C 
ATOM     25  H   UNL     1     -11.173  -4.454  11.929  0.00  0.00    +0.000 HD
ATOM     26  H   UNL     1     -11.193  -2.749  11.438  0.00  0.00    +0.000 HD
ATOM     27  H   UNL     1     -12.711  -3.684  11.518  0.00  0.00    +0.000 HD
ENDBRANCH  23  24
ENDBRANCH  13  23
ENDBRANCH   1  16
BRANCH   2  28
ATOM     28  C   UNL     1      -8.592  -6.181  18.896  0.00  0.00    +0.000 C 
ATOM     29  O   UNL     1      -9.503  -5.364  18.992  0.00  0.00    +0.000 OA
ATOM     30  N   UNL     1      -7.315  -5.955  19.376  0.00  0.00    +0.000 N 
ATOM     31  H   UNL     1      -6.553  -6.521  19.040  0.00  0.00    +0.000 HD
BRANCH  30  32
ATOM     32  C   UNL     1      -6.913  -4.909  20.255  0.00  0.00    +0.000 A 
ATOM     33  C   UNL     1      -7.844  -4.031  20.826  0.00  0.00    +0.000 A 
ATOM     34  C   UNL     1      -7.452  -3.065  21.755  0.00  0.00    +0.000 A 
ATOM     35  C   UNL     1      -6.120  -2.965  22.136  0.00  0.00    +0.000 A 
ATOM     36  C   UNL     1      -5.175  -3.815  21.564  0.00  0.00    +0.000 A 
ATOM     37  C   UNL     1      -5.554  -4.785  20.616  0.00  0.00    +0.000 A 
ATOM     38  H   UNL     1      -8.902  -4.087  20.587  0.00  0.00    +0.000 HD
ATOM     39  H   UNL     1      -8.194  -2.399  22.186  0.00  0.00    +0.000 HD
ATOM     40  H   UNL     1      -5.815  -2.223  22.867  0.00  0.00    +0.000 HD
ATOM     41  H   UNL     1      -4.133  -3.708  21.858  0.00  0.00    +0.000 HD
BRANCH  37  42
ATOM     42  C   UNL     1      -4.463  -5.600  19.974  0.00  0.00    +0.000 C 
ATOM     43  H   UNL     1      -3.696  -5.893  20.702  0.00  0.00    +0.000 HD
ATOM     44  H   UNL     1      -3.963  -5.008  19.202  0.00  0.00    +0.000 HD
ATOM     45  H   UNL     1      -4.864  -6.521  19.541  0.00  0.00    +0.000 HD
ENDBRANCH  37  42
ENDBRANCH  30  32
ENDBRANCH   2  28
BRANCH   3  46
ATOM     46  C   UNL     1      -8.958  -8.859  20.323  0.00  0.00    +0.000 C 
ATOM     47  H   UNL     1      -9.604  -8.211  20.912  0.00  0.00    +0.000 HD
ATOM     48  H   UNL     1      -7.942  -8.641  20.677  0.00  0.00    +0.000 HD
ATOM     49  H   UNL     1      -9.177  -9.903  20.562  0.00  0.00    +0.000 HD
ENDBRANCH   3  46
TORSDOF 7
ENDMDL
MODEL 4
REMARK VINA RESULT:    -8.414      1.922      3.100
REMARK INTER + INTRA:         -12.100
REMARK INTER:                 -10.935
REMARK INTRA:                  -1.165
REMARK UNBOUND:                -0.981
REMARK  Name = 
REMARK  7 active torsions:
REMARK  status: ('A' for Active; 'I' for Inactive)
REMARK    1  A    between atoms: C_1  and  S_2
REMARK    2  A    between atoms: S_2  and  C_3
REMARK    3  A    between atoms: C_6  and  C_7
REMARK    4  A    between atoms: C_8  and  C_9
REMARK    5  A    between atoms: N_11  and  C_12
REMARK    6  A    between atoms: C_17  and  C_18
REMARK    7  A    between atoms: C_19  and  C_20
REMARK                            x       y       z     vdW  Elec       q    Type
REMARK                         _______ _______ _______ _____ _____    ______ ____
ROOT
ATOM      1  C   UNL     1      -9.469  -3.105  20.567  0.00  0.00    +0.000 C 
ATOM      2  C   UNL     1      -8.099  -3.796  20.634  0.00  0.00    +0.000 C 
ATOM      3  C   UNL     1      -7.120  -3.271  21.430  0.00  0.00    +0.000 C 
ATOM      4  N   UNL     1      -7.332  -2.082  22.121  0.00  0.00    +0.000 N 
ATOM      5  C   UNL     1      -8.475  -1.392  22.092  0.00  0.00    +0.000 A 
ATOM      6  N   UNL     1      -8.835  -0.300  22.719  0.00  0.00    +0.000 NA
ATOM      7  C   UNL     1     -10.145  -0.157  22.344  0.00  0.00    +0.000 A 
ATOM      8  N   UNL     1     -10.626  -1.114  21.537  0.00  0.00    +0.000 NA
ATOM      9  N   UNL     1      -9.514  -1.855  21.340  0.00  0.00    +0.000 N 
ATOM     10  H   UNL     1     -10.157  -3.768  21.113  0.00  0.00    +0.000 HD
ATOM     11  H   UNL     1      -6.580  -1.750  22.719  0.00  0.00    +0.000 HD
ATOM     12  H   UNL     1     -10.771   0.660  22.680  0.00  0.00    +0.000 HD
ENDROOT
BRANCH   1  16
ATOM     13  C   UNL     1     -11.224  -2.561  16.614  0.00  0.00    +0.000 A 
ATOM     14  C   UNL     1     -11.781  -3.445  17.536  0.00  0.00    +0.000 A 
ATOM     15  C   UNL     1     -11.212  -3.590  18.803  0.00  0.00    +0.000 A 
ATOM     16  C   UNL     1     -10.062  -2.865  19.175  0.00  0.00    +0.000 A 
ATOM     17  C   UNL     1      -9.520  -1.963  18.250  0.00  0.00    +0.000 A 
ATOM     18  C   UNL     1     -10.090  -1.827  16.977  0.00  0.00    +0.000 A 
ATOM     19  H   UNL     1     -12.653  -4.040  17.280  0.00  0.00    +0.000 HD
ATOM     20  H   UNL     1     -11.684  -4.274  19.508  0.00  0.00    +0.000 HD
ATOM     21  H   UNL     1      -8.641  -1.366  18.491  0.00  0.00    +0.000 HD
ATOM     22  H   UNL     1      -9.635  -1.139  16.265  0.00  0.00    +0.000 HD
BRANCH  13  23
ATOM     23  S   UNL     1     -11.880  -2.413  14.962  0.00  0.00    +0.000 S 
BRANCH  23  24
ATOM     24  C   UNL     1     -11.564  -4.084  14.331  0.00  0.00    +0.000 C 
ATOM     25  H   UNL     1     -10.650  -4.471  14.792  0.00  0.00    +0.000 HD
ATOM     26  H   UNL     1     -11.421  -4.058  13.248  0.00  0.00    +0.000 HD
ATOM     27  H   UNL     1     -12.380  -4.767  14.575  0.00  0.00    +0.000 HD
ENDBRANCH  23  24
ENDBRANCH  13  23
ENDBRANCH   1  16
BRANCH   2  28
ATOM     28  C   UNL     1      -7.863  -5.067  19.850  0.00  0.00    +0.000 C 
ATOM     29  O   UNL     1      -6.855  -5.173  19.156  0.00  0.00    +0.000 OA
ATOM     30  N   UNL     1      -8.855  -6.029  19.901  0.00  0.00    +0.000 N 
ATOM     31  H   UNL     1      -9.764  -5.782  20.257  0.00  0.00    +0.000 HD
BRANCH  30  32
ATOM     32  C   UNL     1      -8.772  -7.358  19.400  0.00  0.00    +0.000 A 
ATOM     33  C   UNL     1      -8.419  -8.434  20.225  0.00  0.00    +0.000 A 
ATOM     34  C   UNL     1      -8.426  -9.746  19.746  0.00  0.00    +0.000 A 
ATOM     35  C   UNL     1      -8.796 -10.006  18.433  0.00  0.00    +0.000 A 
ATOM     36  C   UNL     1      -9.131  -8.948  17.590  0.00  0.00    +0.000 A 
ATOM     37  C   UNL     1      -9.115  -7.619  18.055  0.00  0.00    +0.000 A 
ATOM     38  H   UNL     1      -8.153  -8.290  21.268  0.00  0.00    +0.000 HD
ATOM     39  H   UNL     1      -8.152 -10.563  20.407  0.00  0.00    +0.000 HD
ATOM     40  H   UNL     1      -8.814 -11.026  18.062  0.00  0.00    +0.000 HD
ATOM     41  H   UNL     1      -9.396  -9.168  16.558  0.00  0.00    +0.000 HD
BRANCH  37  42
ATOM     42  C   UNL     1      -9.396  -6.525  17.059  0.00  0.00    +0.000 C 
ATOM     43  H   UNL     1     -10.112  -5.794  17.454  0.00  0.00    +0.000 HD
ATOM     44  H   UNL     1      -9.839  -6.952  16.155  0.00  0.00    +0.000 HD
ATOM     45  H   UNL     1      -8.482  -5.978  16.809  0.00  0.00    +0.000 HD
ENDBRANCH  37  42
ENDBRANCH  30  32
ENDBRANCH   2  28
BRANCH   3  46
ATOM     46  C   UNL     1      -5.761  -3.883  21.727  0.00  0.00    +0.000 C 
ATOM     47  H   UNL     1      -5.751  -4.618  22.529  0.00  0.00    +0.000 HD
ATOM     48  H   UNL     1      -5.070  -3.096  22.056  0.00  0.00    +0.000 HD
ATOM     49  H   UNL     1      -5.348  -4.331  20.820  0.00  0.00    +0.000 HD
ENDBRANCH   3  46
TORSDOF 7
ENDMDL
MODEL 5
REMARK VINA RESULT:    -7.982      1.822      6.070
REMARK INTER + INTRA:         -11.529
REMARK INTER:                 -10.359
REMARK INTRA:                  -1.171
REMARK UNBOUND:                -0.981
REMARK  Name = 
REMARK  7 active torsions:
REMARK  status: ('A' for Active; 'I' for Inactive)
REMARK    1  A    between atoms: C_1  and  S_2
REMARK    2  A    between atoms: S_2  and  C_3
REMARK    3  A    between atoms: C_6  and  C_7
REMARK    4  A    between atoms: C_8  and  C_9
REMARK    5  A    between atoms: N_11  and  C_12
REMARK    6  A    between atoms: C_17  and  C_18
REMARK    7  A    between atoms: C_19  and  C_20
REMARK                            x       y       z     vdW  Elec       q    Type
REMARK                         _______ _______ _______ _____ _____    ______ ____
ROOT
ATOM      1  C   UNL     1      -8.730  -7.487  16.519  0.00  0.00    +0.000 C 
ATOM      2  C   UNL     1      -8.574  -7.387  18.043  0.00  0.00    +0.000 C 
ATOM      3  C   UNL     1      -8.761  -8.501  18.812  0.00  0.00    +0.000 C 
ATOM      4  N   UNL     1      -9.160  -9.702  18.234  0.00  0.00    +0.000 N 
ATOM      5  C   UNL     1      -9.358  -9.872  16.924  0.00  0.00    +0.000 A 
ATOM      6  N   UNL     1      -9.681 -10.939  16.236  0.00  0.00    +0.000 NA
ATOM      7  C   UNL     1      -9.637 -10.487  14.943  0.00  0.00    +0.000 A 
ATOM      8  N   UNL     1      -9.280  -9.204  14.789  0.00  0.00    +0.000 NA
ATOM      9  N   UNL     1      -9.173  -8.819  16.079  0.00  0.00    +0.000 N 
ATOM     10  H   UNL     1      -7.709  -7.411  16.115  0.00  0.00    +0.000 HD
ATOM     11  H   UNL     1      -9.260 -10.505  18.848  0.00  0.00    +0.000 HD
ATOM     12  H   UNL     1      -9.857 -11.115  14.089  0.00  0.00    +0.000 HD
ENDROOT
BRANCH   1  16
ATOM     13  C   UNL     1     -11.025  -4.363  14.525  0.00  0.00    +0.000 A 
ATOM     14  C   UNL     1      -9.706  -4.633  14.164  0.00  0.00    +0.000 A 
ATOM     15  C   UNL     1      -8.996  -5.650  14.804  0.00  0.00    +0.000 A 
ATOM     16  C   UNL     1      -9.583  -6.414  15.833  0.00  0.00    +0.000 A 
ATOM     17  C   UNL     1     -10.916  -6.152  16.176  0.00  0.00    +0.000 A 
ATOM     18  C   UNL     1     -11.622  -5.124  15.535  0.00  0.00    +0.000 A 
ATOM     19  H   UNL     1      -9.210  -4.050  13.393  0.00  0.00    +0.000 HD
ATOM     20  H   UNL     1      -7.974  -5.848  14.486  0.00  0.00    +0.000 HD
ATOM     21  H   UNL     1     -11.422  -6.723  16.953  0.00  0.00    +0.000 HD
ATOM     22  H   UNL     1     -12.649  -4.920  15.837  0.00  0.00    +0.000 HD
BRANCH  13  23
ATOM     23  S   UNL     1     -11.932  -3.019  13.781  0.00  0.00    +0.000 S 
BRANCH  23  24
ATOM     24  C   UNL     1     -11.906  -3.529  12.040  0.00  0.00    +0.000 C 
ATOM     25  H   UNL     1     -12.908  -3.407  11.619  0.00  0.00    +0.000 HD
ATOM     26  H   UNL     1     -11.621  -4.581  11.958  0.00  0.00    +0.000 HD
ATOM     27  H   UNL     1     -11.216  -2.918  11.452  0.00  0.00    +0.000 HD
ENDBRANCH  23  24
ENDBRANCH  13  23
ENDBRANCH   1  16
BRANCH   2  28
ATOM     28  C   UNL     1      -8.178  -6.069  18.670  0.00  0.00    +0.000 C 
ATOM     29  O   UNL     1      -7.012  -5.692  18.602  0.00  0.00    +0.000 OA
ATOM     30  N   UNL     1      -9.160  -5.385  19.364  0.00  0.00    +0.000 N 
ATOM     31  H   UNL     1     -10.010  -5.861  19.615  0.00  0.00    +0.000 HD
BRANCH  30  32
ATOM     32  C   UNL     1      -9.069  -4.059  19.872  0.00  0.00    +0.000 A 
ATOM     33  C   UNL     1      -8.198  -3.732  20.920  0.00  0.00    +0.000 A 
ATOM     34  C   UNL     1      -8.050  -2.412  21.353  0.00  0.00    +0.000 A 
ATOM     35  C   UNL     1      -8.767  -1.393  20.738  0.00  0.00    +0.000 A 
ATOM     36  C   UNL     1      -9.653  -1.700  19.707  0.00  0.00    +0.000 A 
ATOM     37  C   UNL     1      -9.823  -3.028  19.270  0.00  0.00    +0.000 A 
ATOM     38  H   UNL     1      -7.591  -4.484  21.414  0.00  0.00    +0.000 HD
ATOM     39  H   UNL     1      -7.366  -2.184  22.165  0.00  0.00    +0.000 HD
ATOM     40  H   UNL     1      -8.644  -0.365  21.065  0.00  0.00    +0.000 HD
ATOM     41  H   UNL     1     -10.222  -0.893  19.252  0.00  0.00    +0.000 HD
BRANCH  37  42
ATOM     42  C   UNL     1     -10.868  -3.291  18.218  0.00  0.00    +0.000 C 
ATOM     43  H   UNL     1     -10.860  -2.519  17.439  0.00  0.00    +0.000 HD
ATOM     44  H   UNL     1     -11.862  -3.277  18.674  0.00  0.00    +0.000 HD
ATOM     45  H   UNL     1     -10.693  -4.250  17.723  0.00  0.00    +0.000 HD
ENDBRANCH  37  42
ENDBRANCH  30  32
ENDBRANCH   2  28
BRANCH   3  46
ATOM     46  C   UNL     1      -8.521  -8.627  20.308  0.00  0.00    +0.000 C 
ATOM     47  H   UNL     1      -8.408  -7.684  20.839  0.00  0.00    +0.000 HD
ATOM     48  H   UNL     1      -7.580  -9.164  20.482  0.00  0.00    +0.000 HD
ATOM     49  H   UNL     1      -9.325  -9.207  20.767  0.00  0.00    +0.000 HD
ENDBRANCH   3  46
TORSDOF 7
ENDMDL
MODEL 6
REMARK VINA RESULT:    -7.947      2.507      6.078
REMARK INTER + INTRA:         -11.484
REMARK INTER:                 -10.283
REMARK INTRA:                  -1.201
REMARK UNBOUND:                -0.981
REMARK  Name = 
REMARK  7 active torsions:
REMARK  status: ('A' for Active; 'I' for Inactive)
REMARK    1  A    between atoms: C_1  and  S_2
REMARK    2  A    between atoms: S_2  and  C_3
REMARK    3  A    between atoms: C_6  and  C_7
REMARK    4  A    between atoms: C_8  and  C_9
REMARK    5  A    between atoms: N_11  and  C_12
REMARK    6  A    between atoms: C_17  and  C_18
REMARK    7  A    between atoms: C_19  and  C_20
REMARK                            x       y       z     vdW  Elec       q    Type
REMARK                         _______ _______ _______ _____ _____    ______ ____
ROOT
ATOM      1  C   UNL     1      -8.432  -4.593  18.823  0.00  0.00    +0.000 C 
ATOM      2  C   UNL     1      -9.686  -3.723  18.653  0.00  0.00    +0.000 C 
ATOM      3  C   UNL     1      -9.993  -2.793  19.605  0.00  0.00    +0.000 C 
ATOM      4  N   UNL     1      -9.220  -2.677  20.757  0.00  0.00    +0.000 N 
ATOM      5  C   UNL     1      -8.137  -3.416  21.009  0.00  0.00    +0.000 A 
ATOM      6  N   UNL     1      -7.293  -3.389  22.010  0.00  0.00    +0.000 NA
ATOM      7  C   UNL     1      -6.358  -4.320  21.640  0.00  0.00    +0.000 A 
ATOM      8  N   UNL     1      -6.563  -4.907  20.452  0.00  0.00    +0.000 NA
ATOM      9  N   UNL     1      -7.745  -4.355  20.102  0.00  0.00    +0.000 N 
ATOM     10  H   UNL     1      -7.715  -4.222  18.076  0.00  0.00    +0.000 HD
ATOM     11  H   UNL     1      -9.478  -1.952  21.420  0.00  0.00    +0.000 HD
ATOM     12  H   UNL     1      -5.496  -4.567  22.246  0.00  0.00    +0.000 HD
ENDROOT
BRANCH   1  16
ATOM     13  C   UNL     1      -8.917  -8.856  18.049  0.00  0.00    +0.000 A 
ATOM     14  C   UNL     1      -8.552  -7.973  17.034  0.00  0.00    +0.000 A 
ATOM     15  C   UNL     1      -8.385  -6.615  17.309  0.00  0.00    +0.000 A 
ATOM     16  C   UNL     1      -8.594  -6.101  18.604  0.00  0.00    +0.000 A 
ATOM     17  C   UNL     1      -8.939  -6.997  19.625  0.00  0.00    +0.000 A 
ATOM     18  C   UNL     1      -9.113  -8.358  19.342  0.00  0.00    +0.000 A 
ATOM     19  H   UNL     1      -8.405  -8.326  16.016  0.00  0.00    +0.000 HD
ATOM     20  H   UNL     1      -8.081  -5.955  16.497  0.00  0.00    +0.000 HD
ATOM     21  H   UNL     1      -9.097  -6.655  20.647  0.00  0.00    +0.000 HD
ATOM     22  H   UNL     1      -9.409  -9.032  20.146  0.00  0.00    +0.000 HD
BRANCH  13  23
ATOM     23  S   UNL     1      -9.214 -10.581  17.713  0.00  0.00    +0.000 S 
BRANCH  23  24
ATOM     24  C   UNL     1      -9.772 -10.490  15.989  0.00  0.00    +0.000 C 
ATOM     25  H   UNL     1      -9.926  -9.440  15.721  0.00  0.00    +0.000 HD
ATOM     26  H   UNL     1     -10.719 -11.021  15.869  0.00  0.00    +0.000 HD
ATOM     27  H   UNL     1      -9.030 -10.907  15.304  0.00  0.00    +0.000 HD
ENDBRANCH  23  24
ENDBRANCH  13  23
ENDBRANCH   1  16
BRANCH   2  28
ATOM     28  C   UNL     1     -10.543  -3.880  17.417  0.00  0.00    +0.000 C 
ATOM     29  O   UNL     1     -11.546  -4.587  17.461  0.00  0.00    +0.000 OA
ATOM     30  N   UNL     1     -10.096  -3.265  16.262  0.00  0.00    +0.000 N 
ATOM     31  H   UNL     1      -9.147  -2.934  16.214  0.00  0.00    +0.000 HD
BRANCH  30  32
ATOM     32  C   UNL     1     -10.818  -3.125  15.044  0.00  0.00    +0.000 A 
ATOM     33  C   UNL     1     -11.805  -2.143  14.883  0.00  0.00    +0.000 A 
ATOM     34  C   UNL     1     -12.446  -1.955  13.656  0.00  0.00    +0.000 A 
ATOM     35  C   UNL     1     -12.105  -2.743  12.565  0.00  0.00    +0.000 A 
ATOM     36  C   UNL     1     -11.141  -3.738  12.709  0.00  0.00    +0.000 A 
ATOM     37  C   UNL     1     -10.496  -3.949  13.943  0.00  0.00    +0.000 A 
ATOM     38  H   UNL     1     -12.087  -1.480  15.695  0.00  0.00    +0.000 HD
ATOM     39  H   UNL     1     -13.205  -1.184  13.557  0.00  0.00    +0.000 HD
ATOM     40  H   UNL     1     -12.594  -2.590  11.607  0.00  0.00    +0.000 HD
ATOM     41  H   UNL     1     -10.902  -4.361  11.849  0.00  0.00    +0.000 HD
BRANCH  37  42
ATOM     42  C   UNL     1      -9.537  -5.105  14.044  0.00  0.00    +0.000 C 
ATOM     43  H   UNL     1      -9.818  -5.793  14.851  0.00  0.00    +0.000 HD
ATOM     44  H   UNL     1      -8.533  -4.735  14.273  0.00  0.00    +0.000 HD
ATOM     45  H   UNL     1      -9.522  -5.684  13.117  0.00  0.00    +0.000 HD
ENDBRANCH  37  42
ENDBRANCH  30  32
ENDBRANCH   2  28
BRANCH   3  46
ATOM     46  C   UNL     1     -11.105  -1.758  19.544  0.00  0.00    +0.000 C 
ATOM     47  H   UNL     1     -11.064  -0.991  20.314  0.00  0.00    +0.000 HD
ATOM     48  H   UNL     1     -12.073  -2.253  19.691  0.00  0.00    +0.000 HD
ATOM     49  H   UNL     1     -11.119  -1.284  18.560  0.00  0.00    +0.000 HD
ENDBRANCH   3  46
TORSDOF 7
ENDMDL
MODEL 7
REMARK VINA RESULT:    -7.914      2.394      6.348
REMARK INTER + INTRA:         -11.440
REMARK INTER:                 -10.284
REMARK INTRA:                  -1.156
REMARK UNBOUND:                -0.981
REMARK  Name = 
REMARK  7 active torsions:
REMARK  status: ('A' for Active; 'I' for Inactive)
REMARK    1  A    between atoms: C_1  and  S_2
REMARK    2  A    between atoms: S_2  and  C_3
REMARK    3  A    between atoms: C_6  and  C_7
REMARK    4  A    between atoms: C_8  and  C_9
REMARK    5  A    between atoms: N_11  and  C_12
REMARK    6  A    between atoms: C_17  and  C_18
REMARK    7  A    between atoms: C_19  and  C_20
REMARK                            x       y       z     vdW  Elec       q    Type
REMARK                         _______ _______ _______ _____ _____    ______ ____
ROOT
ATOM      1  C   UNL     1      -8.768  -4.788  18.159  0.00  0.00    +0.000 C 
ATOM      2  C   UNL     1     -10.008  -3.887  18.057  0.00  0.00    +0.000 C 
ATOM      3  C   UNL     1     -10.299  -3.026  19.077  0.00  0.00    +0.000 C 
ATOM      4  N   UNL     1      -9.523  -3.009  20.232  0.00  0.00    +0.000 N 
ATOM      5  C   UNL     1      -8.451  -3.783  20.426  0.00  0.00    +0.000 A 
ATOM      6  N   UNL     1      -7.606  -3.844  21.424  0.00  0.00    +0.000 NA
ATOM      7  C   UNL     1      -6.686  -4.759  20.983  0.00  0.00    +0.000 A 
ATOM      8  N   UNL     1      -6.902  -5.252  19.754  0.00  0.00    +0.000 NA
ATOM      9  N   UNL     1      -8.075  -4.657  19.451  0.00  0.00    +0.000 N 
ATOM     10  H   UNL     1      -8.046  -4.373  17.439  0.00  0.00    +0.000 HD
ATOM     11  H   UNL     1      -9.768  -2.332  20.949  0.00  0.00    +0.000 HD
ATOM     12  H   UNL     1      -5.828  -5.064  21.567  0.00  0.00    +0.000 HD
ENDROOT
BRANCH   1  16
ATOM     13  C   UNL     1      -9.309  -8.973  17.067  0.00  0.00    +0.000 A 
ATOM     14  C   UNL     1      -8.840  -8.040  16.144  0.00  0.00    +0.000 A 
ATOM     15  C   UNL     1      -8.657  -6.709  16.521  0.00  0.00    +0.000 A 
ATOM     16  C   UNL     1      -8.954  -6.272  17.828  0.00  0.00    +0.000 A 
ATOM     17  C   UNL     1      -9.405  -7.220  18.756  0.00  0.00    +0.000 A 
ATOM     18  C   UNL     1      -9.594  -8.553  18.371  0.00  0.00    +0.000 A 
ATOM     19  H   UNL     1      -8.622  -8.331  15.120  0.00  0.00    +0.000 HD
ATOM     20  H   UNL     1      -8.270  -6.009  15.781  0.00  0.00    +0.000 HD
ATOM     21  H   UNL     1      -9.634  -6.939  19.784  0.00  0.00    +0.000 HD
ATOM     22  H   UNL     1      -9.972  -9.267  19.103  0.00  0.00    +0.000 HD
BRANCH  13  23
ATOM     23  S   UNL     1      -9.627 -10.663  16.594  0.00  0.00    +0.000 S 
BRANCH  23  24
ATOM     24  C   UNL     1      -8.747 -11.545  17.913  0.00  0.00    +0.000 C 
ATOM     25  H   UNL     1      -7.681 -11.310  17.847  0.00  0.00    +0.000 HD
ATOM     26  H   UNL     1      -8.873 -12.624  17.796  0.00  0.00    +0.000 HD
ATOM     27  H   UNL     1      -9.098 -11.243  18.903  0.00  0.00    +0.000 HD
ENDBRANCH  23  24
ENDBRANCH  13  23
ENDBRANCH   1  16
BRANCH   2  28
ATOM     28  C   UNL     1     -10.869  -3.938  16.815  0.00  0.00    +0.000 C 
ATOM     29  O   UNL     1     -11.909  -4.591  16.825  0.00  0.00    +0.000 OA
ATOM     30  N   UNL     1     -10.386  -3.292  15.692  0.00  0.00    +0.000 N 
ATOM     31  H   UNL     1      -9.421  -3.010  15.660  0.00  0.00    +0.000 HD
BRANCH  30  32
ATOM     32  C   UNL     1     -11.097  -3.054  14.482  0.00  0.00    +0.000 A 
ATOM     33  C   UNL     1     -11.089  -3.980  13.430  0.00  0.00    +0.000 A 
ATOM     34  C   UNL     1     -11.860  -3.779  12.283  0.00  0.00    +0.000 A 
ATOM     35  C   UNL     1     -12.661  -2.650  12.171  0.00  0.00    +0.000 A 
ATOM     36  C   UNL     1     -12.667  -1.707  13.197  0.00  0.00    +0.000 A 
ATOM     37  C   UNL     1     -11.884  -1.889  14.353  0.00  0.00    +0.000 A 
ATOM     38  H   UNL     1     -10.506  -4.895  13.480  0.00  0.00    +0.000 HD
ATOM     39  H   UNL     1     -11.839  -4.514  11.483  0.00  0.00    +0.000 HD
ATOM     40  H   UNL     1     -13.270  -2.498  11.285  0.00  0.00    +0.000 HD
ATOM     41  H   UNL     1     -13.283  -0.817  13.083  0.00  0.00    +0.000 HD
BRANCH  37  42
ATOM     42  C   UNL     1     -11.872  -0.781  15.372  0.00  0.00    +0.000 C 
ATOM     43  H   UNL     1     -10.914  -0.246  15.376  0.00  0.00    +0.000 HD
ATOM     44  H   UNL     1     -12.010  -1.198  16.374  0.00  0.00    +0.000 HD
ATOM     45  H   UNL     1     -12.651  -0.044  15.160  0.00  0.00    +0.000 HD
ENDBRANCH  37  42
ENDBRANCH  30  32
ENDBRANCH   2  28
BRANCH   3  46
ATOM     46  C   UNL     1     -11.394  -1.973  19.097  0.00  0.00    +0.000 C 
ATOM     47  H   UNL     1     -11.219  -1.112  18.454  0.00  0.00    +0.000 HD
ATOM     48  H   UNL     1     -11.482  -1.556  20.108  0.00  0.00    +0.000 HD
ATOM     49  H   UNL     1     -12.353  -2.428  18.839  0.00  0.00    +0.000 HD
ENDBRANCH   3  46
TORSDOF 7
ENDMDL
MODEL 8
REMARK VINA RESULT:    -7.716      3.139      5.462
REMARK INTER + INTRA:         -11.178
REMARK INTER:                  -9.892
REMARK INTRA:                  -1.286
REMARK UNBOUND:                -0.981
REMARK  Name = 
REMARK  7 active torsions:
REMARK  status: ('A' for Active; 'I' for Inactive)
REMARK    1  A    between atoms: C_1  and  S_2
REMARK    2  A    between atoms: S_2  and  C_3
REMARK    3  A    between atoms: C_6  and  C_7
REMARK    4  A    between atoms: C_8  and  C_9
REMARK    5  A    between atoms: N_11  and  C_12
REMARK    6  A    between atoms: C_17  and  C_18
REMARK    7  A    between atoms: C_19  and  C_20
REMARK                            x       y       z     vdW  Elec       q    Type
REMARK                         _______ _______ _______ _____ _____    ______ ____
ROOT
ATOM      1  C   UNL     1      -9.613  -2.787  18.037  0.00  0.00    +0.000 C 
ATOM      2  C   UNL     1     -10.368  -3.989  17.453  0.00  0.00    +0.000 C 
ATOM      3  C   UNL     1     -11.065  -3.844  16.287  0.00  0.00    +0.000 C 
ATOM      4  N   UNL     1     -11.153  -2.602  15.665  0.00  0.00    +0.000 N 
ATOM      5  C   UNL     1     -10.563  -1.493  16.120  0.00  0.00    +0.000 A 
ATOM      6  N   UNL     1     -10.516  -0.281  15.626  0.00  0.00    +0.000 NA
ATOM      7  C   UNL     1      -9.686   0.367  16.502  0.00  0.00    +0.000 A 
ATOM      8  N   UNL     1      -9.196  -0.382  17.501  0.00  0.00    +0.000 NA
ATOM      9  N   UNL     1      -9.829  -1.551  17.267  0.00  0.00    +0.000 N 
ATOM     10  H   UNL     1      -8.546  -3.005  17.875  0.00  0.00    +0.000 HD
ATOM     11  H   UNL     1     -11.663  -2.555  14.787  0.00  0.00    +0.000 HD
ATOM     12  H   UNL     1      -9.419   1.412  16.402  0.00  0.00    +0.000 HD
ENDROOT
BRANCH   1  16
ATOM     13  C   UNL     1     -10.052  -2.065  22.313  0.00  0.00    +0.000 A 
ATOM     14  C   UNL     1      -8.856  -2.543  21.780  0.00  0.00    +0.000 A 
ATOM     15  C   UNL     1      -8.733  -2.750  20.405  0.00  0.00    +0.000 A 
ATOM     16  C   UNL     1      -9.807  -2.498  19.529  0.00  0.00    +0.000 A 
ATOM     17  C   UNL     1     -10.999  -1.996  20.069  0.00  0.00    +0.000 A 
ATOM     18  C   UNL     1     -11.120  -1.798  21.451  0.00  0.00    +0.000 A 
ATOM     19  H   UNL     1      -8.012  -2.774  22.424  0.00  0.00    +0.000 HD
ATOM     20  H   UNL     1      -7.779  -3.107  20.018  0.00  0.00    +0.000 HD
ATOM     21  H   UNL     1     -11.855  -1.769  19.435  0.00  0.00    +0.000 HD
ATOM     22  H   UNL     1     -12.066  -1.433  21.852  0.00  0.00    +0.000 HD
BRANCH  13  23
ATOM     23  S   UNL     1     -10.266  -1.866  24.073  0.00  0.00    +0.000 S 
BRANCH  23  24
ATOM     24  C   UNL     1     -11.683  -2.961  24.358  0.00  0.00    +0.000 C 
ATOM     25  H   UNL     1     -12.591  -2.468  24.001  0.00  0.00    +0.000 HD
ATOM     26  H   UNL     1     -11.795  -3.165  25.426  0.00  0.00    +0.000 HD
ATOM     27  H   UNL     1     -11.577  -3.905  23.817  0.00  0.00    +0.000 HD
ENDBRANCH  23  24
ENDBRANCH  13  23
ENDBRANCH   1  16
BRANCH   2  28
ATOM     28  C   UNL     1     -10.300  -5.327  18.154  0.00  0.00    +0.000 C 
ATOM     29  O   UNL     1     -11.260  -5.716  18.813  0.00  0.00    +0.000 OA
ATOM     30  N   UNL     1      -9.104  -6.018  18.071  0.00  0.00    +0.000 N 
ATOM     31  H   UNL     1      -8.278  -5.539  17.755  0.00  0.00    +0.000 HD
BRANCH  30  32
ATOM     32  C   UNL     1      -8.870  -7.357  18.491  0.00  0.00    +0.000 A 
ATOM     33  C   UNL     1      -8.565  -7.668  19.823  0.00  0.00    +0.000 A 
ATOM     34  C   UNL     1      -8.424  -8.993  20.243  0.00  0.00    +0.000 A 
ATOM     35  C   UNL     1      -8.594 -10.032  19.337  0.00  0.00    +0.000 A 
ATOM     36  C   UNL     1      -8.878  -9.744  18.004  0.00  0.00    +0.000 A 
ATOM     37  C   UNL     1      -9.009  -8.413  17.563  0.00  0.00    +0.000 A 
ATOM     38  H   UNL     1      -8.453  -6.896  20.577  0.00  0.00    +0.000 HD
ATOM     39  H   UNL     1      -8.191  -9.207  21.282  0.00  0.00    +0.000 HD
ATOM     40  H   UNL     1      -8.497 -11.063  19.664  0.00  0.00    +0.000 HD
ATOM     41  H   UNL     1      -8.986 -10.570  17.304  0.00  0.00    +0.000 HD
BRANCH  37  42
ATOM     42  C   UNL     1      -9.221  -8.180  16.090  0.00  0.00    +0.000 C 
ATOM     43  H   UNL     1      -8.904  -9.046  15.495  0.00  0.00    +0.000 HD
ATOM     44  H   UNL     1      -8.621  -7.327  15.760  0.00  0.00    +0.000 HD
ATOM     45  H   UNL     1     -10.277  -8.006  15.869  0.00  0.00    +0.000 HD
ENDBRANCH  37  42
ENDBRANCH  30  32
ENDBRANCH   2  28
BRANCH   3  46
ATOM     46  C   UNL     1     -11.755  -4.941  15.493  0.00  0.00    +0.000 C 
ATOM     47  H   UNL     1     -11.361  -5.943  15.652  0.00  0.00    +0.000 HD
ATOM     48  H   UNL     1     -11.625  -4.753  14.420  0.00  0.00    +0.000 HD
ATOM     49  H   UNL     1     -12.827  -4.936  15.705  0.00  0.00    +0.000 HD
ENDBRANCH   3  46
TORSDOF 7
ENDMDL
MODEL 9
REMARK VINA RESULT:    -7.698      3.008      7.047
REMARK INTER + INTRA:         -11.155
REMARK INTER:                 -10.402
REMARK INTRA:                  -0.753
REMARK UNBOUND:                -0.981
REMARK  Name = 
REMARK  7 active torsions:
REMARK  status: ('A' for Active; 'I' for Inactive)
REMARK    1  A    between atoms: C_1  and  S_2
REMARK    2  A    between atoms: S_2  and  C_3
REMARK    3  A    between atoms: C_6  and  C_7
REMARK    4  A    between atoms: C_8  and  C_9
REMARK    5  A    between atoms: N_11  and  C_12
REMARK    6  A    between atoms: C_17  and  C_18
REMARK    7  A    between atoms: C_19  and  C_20
REMARK                            x       y       z     vdW  Elec       q    Type
REMARK                         _______ _______ _______ _____ _____    ______ ____
ROOT
ATOM      1  C   UNL     1      -9.120  -7.837  18.113  0.00  0.00    +0.000 C 
ATOM      2  C   UNL     1      -9.275  -7.727  16.589  0.00  0.00    +0.000 C 
ATOM      3  C   UNL     1      -9.203  -8.856  15.823  0.00  0.00    +0.000 C 
ATOM      4  N   UNL     1      -8.921 -10.089  16.404  0.00  0.00    +0.000 N 
ATOM      5  C   UNL     1      -8.732 -10.274  17.714  0.00  0.00    +0.000 A 
ATOM      6  N   UNL     1      -8.510 -11.365  18.403  0.00  0.00    +0.000 NA
ATOM      7  C   UNL     1      -8.502 -10.907  19.694  0.00  0.00    +0.000 A 
ATOM      8  N   UNL     1      -8.730  -9.594  19.847  0.00  0.00    +0.000 NA
ATOM      9  N   UNL     1      -8.807  -9.205  18.556  0.00  0.00    +0.000 N 
ATOM     10  H   UNL     1     -10.126  -7.660  18.523  0.00  0.00    +0.000 HD
ATOM     11  H   UNL     1      -8.903 -10.900  15.792  0.00  0.00    +0.000 HD
ATOM     12  H   UNL     1      -8.339 -11.550  20.550  0.00  0.00    +0.000 HD
ENDROOT
BRANCH   1  16
ATOM     13  C   UNL     1      -6.277  -5.111  19.980  0.00  0.00    +0.000 A 
ATOM     14  C   UNL     1      -5.925  -5.869  18.865  0.00  0.00    +0.000 A 
ATOM     15  C   UNL     1      -6.858  -6.723  18.273  0.00  0.00    +0.000 A 
ATOM     16  C   UNL     1      -8.162  -6.851  18.790  0.00  0.00    +0.000 A 
ATOM     17  C   UNL     1      -8.516  -6.069  19.898  0.00  0.00    +0.000 A 
ATOM     18  C   UNL     1      -7.573  -5.220  20.493  0.00  0.00    +0.000 A 
ATOM     19  H   UNL     1      -4.922  -5.818  18.450  0.00  0.00    +0.000 HD
ATOM     20  H   UNL     1      -6.557  -7.287  17.391  0.00  0.00    +0.000 HD
ATOM     21  H   UNL     1      -9.515  -6.117  20.327  0.00  0.00    +0.000 HD
ATOM     22  H   UNL     1      -7.862  -4.642  21.371  0.00  0.00    +0.000 HD
BRANCH  13  23
ATOM     23  S   UNL     1      -5.085  -4.072  20.805  0.00  0.00    +0.000 S 
BRANCH  23  24
ATOM     24  C   UNL     1      -6.149  -3.256  22.026  0.00  0.00    +0.000 C 
ATOM     25  H   UNL     1      -6.914  -3.963  22.360  0.00  0.00    +0.000 HD
ATOM     26  H   UNL     1      -6.647  -2.392  21.578  0.00  0.00    +0.000 HD
ATOM     27  H   UNL     1      -5.582  -2.934  22.903  0.00  0.00    +0.000 HD
ENDBRANCH  23  24
ENDBRANCH  13  23
ENDBRANCH   1  16
BRANCH   2  28
ATOM     28  C   UNL     1      -9.544  -6.379  15.960  0.00  0.00    +0.000 C 
ATOM     29  O   UNL     1      -8.819  -5.978  15.054  0.00  0.00    +0.000 OA
ATOM     30  N   UNL     1     -10.568  -5.626  16.505  0.00  0.00    +0.000 N 
ATOM     31  H   UNL     1     -10.944  -5.880  17.403  0.00  0.00    +0.000 HD
BRANCH  30  32
ATOM     32  C   UNL     1     -11.113  -4.425  15.969  0.00  0.00    +0.000 A 
ATOM     33  C   UNL     1     -11.211  -4.215  14.587  0.00  0.00    +0.000 A 
ATOM     34  C   UNL     1     -11.828  -3.073  14.071  0.00  0.00    +0.000 A 
ATOM     35  C   UNL     1     -12.365  -2.123  14.931  0.00  0.00    +0.000 A 
ATOM     36  C   UNL     1     -12.260  -2.303  16.308  0.00  0.00    +0.000 A 
ATOM     37  C   UNL     1     -11.629  -3.443  16.843  0.00  0.00    +0.000 A 
ATOM     38  H   UNL     1     -10.837  -4.941  13.872  0.00  0.00    +0.000 HD
ATOM     39  H   UNL     1     -11.895  -2.936  12.996  0.00  0.00    +0.000 HD
ATOM     40  H   UNL     1     -12.856  -1.240  14.531  0.00  0.00    +0.000 HD
ATOM     41  H   UNL     1     -12.666  -1.538  16.966  0.00  0.00    +0.000 HD
BRANCH  37  42
ATOM     42  C   UNL     1     -11.469  -3.518  18.339  0.00  0.00    +0.000 C 
ATOM     43  H   UNL     1     -11.678  -2.553  18.816  0.00  0.00    +0.000 HD
ATOM     44  H   UNL     1     -10.438  -3.783  18.588  0.00  0.00    +0.000 HD
ATOM     45  H   UNL     1     -12.161  -4.248  18.770  0.00  0.00    +0.000 HD
ENDBRANCH  37  42
ENDBRANCH  30  32
ENDBRANCH   2  28
BRANCH   3  46
ATOM     46  C   UNL     1      -9.464  -8.963  14.330  0.00  0.00    +0.000 C 
ATOM     47  H   UNL     1     -10.180  -8.247  13.934  0.00  0.00    +0.000 HD
ATOM     48  H   UNL     1      -9.895  -9.947  14.104  0.00  0.00    +0.000 HD
ATOM     49  H   UNL     1      -8.524  -8.877  13.780  0.00  0.00    +0.000 HD
ENDBRANCH   3  46
TORSDOF 7
ENDMDL
