REMARK  Name = 
REMARK  4 active torsions:
REMARK  status: ('A' for Active; 'I' for Inactive)
REMARK    1  A    between atoms: C_1  and  N_2
REMARK    2  A    between atoms: C_6  and  C_8
REMARK    3  A    between atoms: C_11  and  C_12
REMARK    4  A    between atoms: C_26  and  C_27
REMARK                            x       y       z     vdW  Elec       q    Type
REMARK                         _______ _______ _______ _____ _____    ______ ____
ROOT
ATOM      1  N   UNL     1      -4.224  -2.064   0.013  0.00  0.00    +0.000 N 
ATOM      2  N   UNL     1      -3.477  -0.962   0.052  0.00  0.00    +0.000 NA
ATOM      3  C   UNL     1      -2.207  -1.370  -0.046  0.00  0.00    +0.000 A 
ATOM      4  N   UNL     1      -1.121  -0.505   0.018  0.00  0.00    +0.000 N 
ATOM      5  C   UNL     1      -1.254   0.875   0.118  0.00  0.00    +0.000 C 
ATOM      6  O   UNL     1      -2.298   1.521   0.038  0.00  0.00    +0.000 OA
ATOM      7  C   UNL     1      -2.168  -2.798  -0.181  0.00  0.00    +0.000 A 
ATOM      8  C   UNL     1      -3.472  -3.193  -0.022  0.00  0.00    +0.000 A 
ATOM      9  N   UNL     1      -3.838  -4.507   0.125  0.00  0.00    +0.000 N 
ATOM     10  C   UNL     1      -2.833  -5.517   0.088  0.00  0.00    +0.000 C 
ATOM     11  O   UNL     1      -3.155  -6.615   0.509  0.00  0.00    +0.000 OA
ATOM     12  C   UNL     1      -1.537  -5.204  -0.614  0.00  0.00    +0.000 C 
ATOM     13  C   UNL     1      -1.045  -3.761  -0.386  0.00  0.00    +0.000 C 
ATOM     14  H   UNL     1      -0.198  -0.903  -0.048  0.00  0.00    +0.000 HD
ATOM     15  H   UNL     1      -4.775  -4.778   0.399  0.00  0.00    +0.000 HD
ATOM     16  H   UNL     1      -1.730  -5.412  -1.675  0.00  0.00    +0.000 HD
ATOM     17  H   UNL     1      -0.774  -5.916  -0.284  0.00  0.00    +0.000 HD
ATOM     18  H   UNL     1      -0.440  -3.760   0.531  0.00  0.00    +0.000 HD
ENDROOT
BRANCH   5  19
ATOM     19  C   UNL     1      -0.007   1.665   0.327  0.00  0.00    +0.000 A 
ATOM     20  C   UNL     1       0.065   2.948  -0.229  0.00  0.00    +0.000 A 
ATOM     21  C   UNL     1       1.153   3.789   0.044  0.00  0.00    +0.000 A 
ATOM     22  C   UNL     1       2.199   3.384   0.894  0.00  0.00    +0.000 A 
ATOM     23  C   UNL     1       2.109   2.086   1.433  0.00  0.00    +0.000 A 
ATOM     24  C   UNL     1       1.022   1.233   1.159  0.00  0.00    +0.000 A 
ATOM     25  H   UNL     1      -0.748   3.316  -0.855  0.00  0.00    +0.000 HD
ATOM     26  H   UNL     1       1.153   4.781  -0.405  0.00  0.00    +0.000 HD
ATOM     27  H   UNL     1       2.870   1.735   2.129  0.00  0.00    +0.000 HD
ATOM     28  H   UNL     1       0.974   0.276   1.672  0.00  0.00    +0.000 HD
BRANCH  22  29
ATOM     29  C   UNL     1       3.316   4.300   1.251  0.00  0.00    +0.000 A 
ATOM     30  C   UNL     1       3.125   5.689   1.371  0.00  0.00    +0.000 A 
ATOM     31  C   UNL     1       4.164   6.548   1.753  0.00  0.00    +0.000 A 
ATOM     32  C   UNL     1       5.425   6.034   2.034  0.00  0.00    +0.000 A 
ATOM     33  C   UNL     1       5.649   4.666   1.918  0.00  0.00    +0.000 A 
ATOM     34  C   UNL     1       4.609   3.814   1.525  0.00  0.00    +0.000 A 
ATOM     35  H   UNL     1       2.148   6.133   1.190  0.00  0.00    +0.000 HD
ATOM     36  H   UNL     1       3.982   7.612   1.843  0.00  0.00    +0.000 HD
ATOM     37  H   UNL     1       6.231   6.695   2.341  0.00  0.00    +0.000 HD
ATOM     38  H   UNL     1       6.631   4.257   2.139  0.00  0.00    +0.000 HD
ATOM     39  H   UNL     1       4.832   2.753   1.435  0.00  0.00    +0.000 HD
ENDBRANCH  22  29
ENDBRANCH   5  19
BRANCH  13  40
ATOM     40  C   UNL     1      -0.215  -3.306  -1.567  0.00  0.00    +0.000 A 
ATOM     41  C   UNL     1      -0.604  -3.181  -2.891  0.00  0.00    +0.000 A 
ATOM     42  C   UNL     1       0.350  -2.465  -3.666  0.00  0.00    +0.000 A 
ATOM     43  C   UNL     1       1.462  -2.133  -2.925  0.00  0.00    +0.000 A 
ATOM     44  S   UNL     1       1.385  -2.743  -1.331  0.00  0.00    +0.000 S 
ATOM     45  H   UNL     1      -1.567  -3.498  -3.277  0.00  0.00    +0.000 HD
ATOM     46  H   UNL     1       0.214  -2.178  -4.700  0.00  0.00    +0.000 HD
ATOM     47  H   UNL     1       2.325  -1.562  -3.249  0.00  0.00    +0.000 HD
ENDBRANCH  13  40
BRANCH   1  48
ATOM     48  C   UNL     1      -5.662  -1.961   0.006  0.00  0.00    +0.000 C 
ATOM     49  H   UNL     1      -5.957  -0.909   0.020  0.00  0.00    +0.000 HD
ATOM     50  H   UNL     1      -6.049  -2.474   0.889  0.00  0.00    +0.000 HD
ATOM     51  H   UNL     1      -6.033  -2.436  -0.906  0.00  0.00    +0.000 HD
ENDBRANCH   1  48
TORSDOF 4
