REMARK  Name = 
REMARK  7 active torsions:
REMARK  status: ('A' for Active; 'I' for Inactive)
REMARK    1  A    between atoms: C_1  and  C_2
REMARK    2  A    between atoms: C_4  and  C_5
REMARK    3  A    between atoms: C_7  and  N_8
REMARK    4  A    between atoms: N_8  and  C_9
REMARK    5  A    between atoms: N_14  and  C_15
REMARK    6  A    between atoms: C_15  and  C_16
REMARK    7  A    between atoms: C_21  and  N_22
REMARK                            x       y       z     vdW  Elec       q    Type
REMARK                         _______ _______ _______ _____ _____    ______ ____
ROOT
ATOM      1  C   UNL     1      -1.019  -0.537  -0.397  0.00  0.00    +0.000 A 
ATOM      2  N   UNL     1      -0.601  -1.402  -1.329  0.00  0.00    +0.000 N 
ATOM      3  C   UNL     1       0.532  -2.071  -1.166  0.00  0.00    +0.000 A 
ATOM      4  N   UNL     1       1.311  -1.982  -0.082  0.00  0.00    +0.000 NA
ATOM      5  C   UNL     1       0.909  -1.139   0.887  0.00  0.00    +0.000 A 
ATOM      6  N   UNL     1       1.696  -0.987   2.040  0.00  0.00    +0.000 N 
ATOM      7  C   UNL     1      -0.292  -0.404   0.799  0.00  0.00    +0.000 A 
ATOM      8  H   UNL     1      -1.165  -1.514  -2.165  0.00  0.00    +0.000 HD
ATOM      9  H   UNL     1       0.859  -2.709  -1.979  0.00  0.00    +0.000 HD
ATOM     10  H   UNL     1       2.093  -0.044   2.059  0.00  0.00    +0.000 HD
ENDROOT
BRANCH   6  11
ATOM     11  C   UNL     1       2.769  -1.985   2.203  0.00  0.00    +0.000 C 
ATOM     12  H   UNL     1       3.388  -2.022   1.297  0.00  0.00    +0.000 HD
ATOM     13  H   UNL     1       2.326  -2.974   2.373  0.00  0.00    +0.000 HD
BRANCH  11  14
ATOM     14  C   UNL     1       3.683  -1.620   3.377  0.00  0.00    +0.000 C 
ATOM     15  C   UNL     1       2.987  -1.452   4.717  0.00  0.00    +0.000 C 
ATOM     16  C   UNL     1       3.944  -0.538   5.443  0.00  0.00    +0.000 C 
ATOM     17  C   UNL     1       4.442   0.367   4.335  0.00  0.00    +0.000 C 
ATOM     18  O   UNL     1       4.333  -0.362   3.103  0.00  0.00    +0.000 OA
ATOM     19  H   UNL     1       4.473  -2.377   3.462  0.00  0.00    +0.000 HD
ATOM     20  H   UNL     1       2.821  -2.402   5.232  0.00  0.00    +0.000 HD
ATOM     21  H   UNL     1       2.019  -0.949   4.614  0.00  0.00    +0.000 HD
ATOM     22  H   UNL     1       4.777  -1.121   5.853  0.00  0.00    +0.000 HD
ATOM     23  H   UNL     1       3.481   0.017   6.263  0.00  0.00    +0.000 HD
ATOM     24  H   UNL     1       5.479   0.681   4.486  0.00  0.00    +0.000 HD
ATOM     25  H   UNL     1       3.817   1.260   4.239  0.00  0.00    +0.000 HD
ENDBRANCH  11  14
ENDBRANCH   6  11
BRANCH   7  26
ATOM     26  N   UNL     1      -0.630   0.573   1.768  0.00  0.00    +0.000 N 
ATOM     27  H   UNL     1      -0.089   0.425   2.626  0.00  0.00    +0.000 HD
ATOM     28  H   UNL     1      -1.623   0.625   1.992  0.00  0.00    +0.000 HD
ENDBRANCH   7  26
BRANCH   1  29
ATOM     29  N   UNL     1      -2.205   0.191  -0.640  0.00  0.00    +0.000 N 
ATOM     30  H   UNL     1      -2.221   1.003  -0.013  0.00  0.00    +0.000 HD
BRANCH  29  35
ATOM     31  C   UNL     1      -1.890   1.605  -4.088  0.00  0.00    +0.000 A 
ATOM     32  C   UNL     1      -3.238   1.702  -4.442  0.00  0.00    +0.000 A 
ATOM     33  C   UNL     1      -4.244   1.320  -3.546  0.00  0.00    +0.000 A 
ATOM     34  C   UNL     1      -3.892   0.814  -2.286  0.00  0.00    +0.000 A 
ATOM     35  C   UNL     1      -2.548   0.666  -1.935  0.00  0.00    +0.000 A 
ATOM     36  C   UNL     1      -1.559   1.115  -2.824  0.00  0.00    +0.000 A 
ATOM     37  H   UNL     1      -3.510   2.102  -5.419  0.00  0.00    +0.000 HD
ATOM     38  H   UNL     1      -4.676   0.526  -1.587  0.00  0.00    +0.000 HD
ATOM     39  H   UNL     1      -0.510   1.116  -2.538  0.00  0.00    +0.000 HD
BRANCH  31  40
ATOM     40  C   UNL     1      -0.796   2.044  -5.019  0.00  0.00    +0.000 C 
ATOM     41  H   UNL     1      -1.194   2.349  -5.991  0.00  0.00    +0.000 HD
ATOM     42  H   UNL     1      -0.095   1.218  -5.183  0.00  0.00    +0.000 HD
ATOM     43  H   UNL     1      -0.257   2.891  -4.586  0.00  0.00    +0.000 HD
ENDBRANCH  31  40
BRANCH  33  44
ATOM     44  C   UNL     1      -5.692   1.467  -3.916  0.00  0.00    +0.000 C 
ATOM     45  H   UNL     1      -5.810   1.855  -4.934  0.00  0.00    +0.000 HD
ATOM     46  H   UNL     1      -6.190   2.163  -3.234  0.00  0.00    +0.000 HD
ATOM     47  H   UNL     1      -6.194   0.495  -3.871  0.00  0.00    +0.000 HD
ENDBRANCH  33  44
ENDBRANCH  29  35
ENDBRANCH   1  29
TORSDOF 7
