REMARK  Name = 
REMARK  7 active torsions:
REMARK  status: ('A' for Active; 'I' for Inactive)
REMARK    1  A    between atoms: C_1  and  C_2
REMARK    2  A    between atoms: C_2  and  C_3
REMARK    3  A    between atoms: C_3  and  C_4
REMARK    4  A    between atoms: C_3  and  C_5
REMARK    5  A    between atoms: C_8  and  N_9
REMARK    6  A    between atoms: C_10  and  C_12
REMARK    7  A    between atoms: C_12  and  N_13
REMARK                            x       y       z     vdW  Elec       q    Type
REMARK                         _______ _______ _______ _____ _____    ______ ____
ROOT
ATOM      1  N   UNL     1      -0.864   0.031   0.028  0.00  0.00    +0.000 N 
ATOM      2  C   UNL     1      -0.112   1.149  -0.229  0.00  0.00    +0.000 C 
ATOM      3  O   UNL     1      -0.500   2.247  -0.620  0.00  0.00    +0.000 OA
ATOM      4  H   UNL     1      -0.369  -0.834   0.223  0.00  0.00    +0.000 HD
ENDROOT
BRANCH   1   8
ATOM      5  C   UNL     1      -5.005  -0.300  -0.474  0.00  0.00    +0.000 A 
ATOM      6  C   UNL     1      -4.402   0.955  -0.570  0.00  0.00    +0.000 A 
ATOM      7  C   UNL     1      -3.037   1.082  -0.378  0.00  0.00    +0.000 A 
ATOM      8  C   UNL     1      -2.253  -0.037  -0.108  0.00  0.00    +0.000 A 
ATOM      9  C   UNL     1      -2.844  -1.290   0.020  0.00  0.00    +0.000 A 
ATOM     10  C   UNL     1      -4.218  -1.418  -0.159  0.00  0.00    +0.000 A 
ATOM     11  H   UNL     1      -4.986   1.846  -0.789  0.00  0.00    +0.000 HD
ATOM     12  H   UNL     1      -2.629   2.081  -0.465  0.00  0.00    +0.000 HD
ATOM     13  H   UNL     1      -2.253  -2.174   0.242  0.00  0.00    +0.000 HD
ATOM     14  H   UNL     1      -4.668  -2.401  -0.057  0.00  0.00    +0.000 HD
BRANCH   5  15
ATOM     15  C   UNL     1      -6.493  -0.407  -0.710  0.00  0.00    +0.000 C 
ATOM     16  H   UNL     1      -6.877   0.582  -0.995  0.00  0.00    +0.000 HD
BRANCH  15  17
ATOM     17  C   UNL     1      -6.756  -1.337  -1.896  0.00  0.00    +0.000 C 
ATOM     18  H   UNL     1      -6.380  -2.351  -1.717  0.00  0.00    +0.000 HD
ATOM     19  H   UNL     1      -6.260  -0.959  -2.799  0.00  0.00    +0.000 HD
ATOM     20  H   UNL     1      -7.826  -1.405  -2.105  0.00  0.00    +0.000 HD
ENDBRANCH  15  17
BRANCH  15  21
ATOM     21  C   UNL     1      -7.243  -0.850   0.556  0.00  0.00    +0.000 C 
ATOM     22  H   UNL     1      -8.308  -0.940   0.319  0.00  0.00    +0.000 HD
ATOM     23  H   UNL     1      -6.905  -1.839   0.888  0.00  0.00    +0.000 HD
BRANCH  21  24
ATOM     24  C   UNL     1      -7.092   0.137   1.712  0.00  0.00    +0.000 C 
ATOM     25  H   UNL     1      -7.751  -0.148   2.538  0.00  0.00    +0.000 HD
ATOM     26  H   UNL     1      -7.357   1.154   1.403  0.00  0.00    +0.000 HD
ATOM     27  H   UNL     1      -6.068   0.153   2.100  0.00  0.00    +0.000 HD
ENDBRANCH  21  24
ENDBRANCH  15  21
ENDBRANCH   5  15
ENDBRANCH   1   8
BRANCH   2  28
ATOM     28  C   UNL     1       1.343   0.857  -0.272  0.00  0.00    +0.000 C 
ATOM     29  H   UNL     1       1.799   1.833  -0.417  0.00  0.00    +0.000 HD
ATOM     30  H   UNL     1       1.522   0.282  -1.194  0.00  0.00    +0.000 HD
BRANCH  28  31
ATOM     31  N   UNL     1       1.965   0.162   0.835  0.00  0.00    +0.000 N 
ATOM     32  C   UNL     1       2.391   0.846   1.957  0.00  0.00    +0.000 C 
ATOM     33  O   UNL     1       1.705   1.485   2.738  0.00  0.00    +0.000 OA
ATOM     34  N   UNL     1       3.778   0.649   2.072  0.00  0.00    +0.000 N 
ATOM     35  C   UNL     1       4.279   0.274   0.787  0.00  0.00    +0.000 C 
ATOM     36  C   UNL     1       4.414   1.526  -0.147  0.00  0.00    +0.000 C 
ATOM     37  C   UNL     1       4.893   0.923  -1.457  0.00  0.00    +0.000 C 
ATOM     38  C   UNL     1       5.989   0.120  -0.828  0.00  0.00    +0.000 A 
ATOM     39  C   UNL     1       7.260  -0.025  -1.330  0.00  0.00    +0.000 A 
ATOM     40  C   UNL     1       8.181  -0.672  -0.523  0.00  0.00    +0.000 A 
ATOM     41  C   UNL     1       7.799  -1.214   0.721  0.00  0.00    +0.000 A 
ATOM     42  C   UNL     1       6.508  -1.037   1.234  0.00  0.00    +0.000 A 
ATOM     43  C   UNL     1       5.618  -0.319   0.477  0.00  0.00    +0.000 A 
ATOM     44  C   UNL     1       3.060  -0.558   0.429  0.00  0.00    +0.000 C 
ATOM     45  O   UNL     1       3.005  -1.620  -0.174  0.00  0.00    +0.000 OA
ATOM     46  H   UNL     1       4.310   0.953   2.877  0.00  0.00    +0.000 HD
ATOM     47  H   UNL     1       5.181   2.210   0.256  0.00  0.00    +0.000 HD
ATOM     48  H   UNL     1       3.556   2.170  -0.279  0.00  0.00    +0.000 HD
ATOM     49  H   UNL     1       5.226   1.667  -2.182  0.00  0.00    +0.000 HD
ATOM     50  H   UNL     1       4.142   0.269  -1.921  0.00  0.00    +0.000 HD
ATOM     51  H   UNL     1       7.544   0.429  -2.273  0.00  0.00    +0.000 HD
ATOM     52  H   UNL     1       9.219  -0.737  -0.852  0.00  0.00    +0.000 HD
ATOM     53  H   UNL     1       8.539  -1.750   1.303  0.00  0.00    +0.000 HD
ATOM     54  H   UNL     1       6.235  -1.454   2.201  0.00  0.00    +0.000 HD
ENDBRANCH  28  31
ENDBRANCH   2  28
TORSDOF 7
