MODEL 1
REMARK VINA RESULT:   -10.006      0.000      0.000
REMARK INTER + INTRA:         -14.502
REMARK INTER:                 -14.101
REMARK INTRA:                  -0.401
REMARK UNBOUND:                -0.401
REMARK  Name = 
REMARK  9 active torsions:
REMARK  status: ('A' for Active; 'I' for Inactive)
REMARK    1  A    between atoms: C_1  and  C_2
REMARK    2  A    between atoms: C_4  and  C_5
REMARK    3  A    between atoms: N_7  and  C_8
REMARK    4  A    between atoms: C_8  and  C_9
REMARK    5  A    between atoms: C_8  and  C_10
REMARK    6  A    between atoms: C_8  and  C_11
REMARK    7  A    between atoms: C_11  and  N_12
REMARK    8  A    between atoms: N_15  and  N_16
REMARK    9  A    between atoms: N_19  and  C_20
REMARK                            x       y       z     vdW  Elec       q    Type
REMARK                         _______ _______ _______ _____ _____    ______ ____
ROOT
ATOM      1  C   UNL     1     -10.090  -2.022  20.072  0.00  0.00    +0.000 C 
ENDROOT
BRANCH   1   6
ATOM      2  C   UNL     1      -7.001  -4.340  21.082  0.00  0.00    +0.000 C 
ATOM      3  C   UNL     1      -6.293  -3.310  21.956  0.00  0.00    +0.000 C 
ATOM      4  C   UNL     1      -7.304  -2.593  22.848  0.00  0.00    +0.000 C 
ATOM      5  C   UNL     1      -8.315  -1.853  21.970  0.00  0.00    +0.000 C 
ATOM      6  N   UNL     1      -9.033  -2.778  20.987  0.00  0.00    +0.000 N 
ATOM      7  C   UNL     1      -8.055  -3.662  20.200  0.00  0.00    +0.000 C 
ATOM      8  H   UNL     1      -7.496  -5.083  21.716  0.00  0.00    +0.000 HD
ATOM      9  H   UNL     1      -5.782  -2.573  21.321  0.00  0.00    +0.000 HD
ATOM     10  H   UNL     1      -5.516  -3.783  22.567  0.00  0.00    +0.000 HD
ATOM     11  H   UNL     1      -6.757  -1.841  23.430  0.00  0.00    +0.000 HD
ATOM     12  H   UNL     1      -7.797  -1.092  21.382  0.00  0.00    +0.000 HD
ATOM     13  H   UNL     1      -9.054  -1.348  22.585  0.00  0.00    +0.000 HD
ATOM     14  H   UNL     1      -9.605  -3.403  21.576  0.00  0.00    +0.000 HD
ATOM     15  H   UNL     1      -7.575  -3.030  19.448  0.00  0.00    +0.000 HD
ATOM     16  H   UNL     1      -8.645  -4.442  19.709  0.00  0.00    +0.000 HD
BRANCH   2  17
ATOM     17  C   UNL     1      -5.978  -5.108  20.242  0.00  0.00    +0.000 C 
ATOM     18  H   UNL     1      -5.735  -4.553  19.329  0.00  0.00    +0.000 HD
ATOM     19  H   UNL     1      -6.355  -6.093  19.946  0.00  0.00    +0.000 HD
ATOM     20  H   UNL     1      -5.047  -5.251  20.800  0.00  0.00    +0.000 HD
ENDBRANCH   2  17
BRANCH   4  21
ATOM     21  C   UNL     1      -7.948  -3.551  23.855  0.00  0.00    +0.000 C 
ATOM     22  H   UNL     1      -9.012  -3.349  24.016  0.00  0.00    +0.000 HD
ATOM     23  H   UNL     1      -7.452  -3.481  24.827  0.00  0.00    +0.000 HD
ATOM     24  H   UNL     1      -7.856  -4.588  23.514  0.00  0.00    +0.000 HD
ENDBRANCH   4  21
ENDBRANCH   1   6
BRANCH   1  25
ATOM     25  C   UNL     1     -11.439  -1.922  20.811  0.00  0.00    +0.000 C 
ATOM     26  H   UNL     1     -11.424  -1.170  21.606  0.00  0.00    +0.000 HD
ATOM     27  H   UNL     1     -11.740  -2.876  21.253  0.00  0.00    +0.000 HD
ATOM     28  H   UNL     1     -12.244  -1.633  20.124  0.00  0.00    +0.000 HD
ENDBRANCH   1  25
BRANCH   1  29
ATOM     29  C   UNL     1      -9.560  -0.603  19.777  0.00  0.00    +0.000 C 
ATOM     30  H   UNL     1     -10.106   0.170  20.324  0.00  0.00    +0.000 HD
ATOM     31  H   UNL     1      -9.671  -0.355  18.713  0.00  0.00    +0.000 HD
ATOM     32  H   UNL     1      -8.497  -0.512  20.028  0.00  0.00    +0.000 HD
ENDBRANCH   1  29
BRANCH   1  33
ATOM     33  C   UNL     1     -10.296  -2.758  18.693  0.00  0.00    +0.000 C 
ATOM     34  H   UNL     1      -9.317  -2.920  18.219  0.00  0.00    +0.000 HD
ATOM     35  H   UNL     1     -10.864  -2.131  17.997  0.00  0.00    +0.000 HD
BRANCH  33  36
ATOM     36  N   UNL     1     -10.932  -4.074  18.794  0.00  0.00    +0.000 N 
ATOM     37  C   UNL     1     -10.851  -5.025  17.814  0.00  0.00    +0.000 C 
ATOM     38  O   UNL     1     -10.358  -4.808  16.709  0.00  0.00    +0.000 OA
ATOM     39  N   UNL     1     -11.463  -6.203  18.126  0.00  0.00    +0.000 N 
ATOM     40  H   UNL     1     -11.289  -4.365  19.699  0.00  0.00    +0.000 HD
ATOM     41  H   UNL     1     -11.785  -6.454  19.057  0.00  0.00    +0.000 HD
BRANCH  39  42
ATOM     42  N   UNL     1     -11.529  -7.247  17.166  0.00  0.00    +0.000 N 
ATOM     43  C   UNL     1     -10.598  -8.277  17.334  0.00  0.00    +0.000 C 
ATOM     44  O   UNL     1      -9.789  -8.213  18.261  0.00  0.00    +0.000 OA
ATOM     45  N   UNL     1     -10.662  -9.234  16.356  0.00  0.00    +0.000 N 
ATOM     46  H   UNL     1     -12.457  -7.471  16.817  0.00  0.00    +0.000 HD
ATOM     47  H   UNL     1     -11.203  -9.010  15.529  0.00  0.00    +0.000 HD
BRANCH  45  48
ATOM     48  C   UNL     1      -9.808 -10.367  16.249  0.00  0.00    +0.000 A 
ATOM     49  C   UNL     1      -9.501 -11.197  17.332  0.00  0.00    +0.000 A 
ATOM     50  C   UNL     1      -8.649 -12.300  17.181  0.00  0.00    +0.000 A 
ATOM     51  C   UNL     1      -8.093 -12.587  15.939  0.00  0.00    +0.000 A 
ATOM     52  C   UNL     1      -8.394 -11.777  14.848  0.00  0.00    +0.000 A 
ATOM     53  C   UNL     1      -9.253 -10.679  14.998  0.00  0.00    +0.000 A 
ATOM     54  H   UNL     1      -9.913 -11.018  18.320  0.00  0.00    +0.000 HD
ATOM     55  H   UNL     1      -8.423 -12.928  18.039  0.00  0.00    +0.000 HD
ATOM     56  H   UNL     1      -7.430 -13.442  15.825  0.00  0.00    +0.000 HD
ATOM     57  H   UNL     1      -7.951 -12.000  13.879  0.00  0.00    +0.000 HD
ATOM     58  H   UNL     1      -9.456 -10.065  14.125  0.00  0.00    +0.000 HD
ENDBRANCH  45  48
ENDBRANCH  39  42
ENDBRANCH  33  36
ENDBRANCH   1  33
TORSDOF 9
ENDMDL
MODEL 2
REMARK VINA RESULT:    -9.858      1.431      1.859
REMARK INTER + INTRA:         -14.293
REMARK INTER:                 -13.681
REMARK INTRA:                  -0.612
REMARK UNBOUND:                -0.401
REMARK  Name = 
REMARK  9 active torsions:
REMARK  status: ('A' for Active; 'I' for Inactive)
REMARK    1  A    between atoms: C_1  and  C_2
REMARK    2  A    between atoms: C_4  and  C_5
REMARK    3  A    between atoms: N_7  and  C_8
REMARK    4  A    between atoms: C_8  and  C_9
REMARK    5  A    between atoms: C_8  and  C_10
REMARK    6  A    between atoms: C_8  and  C_11
REMARK    7  A    between atoms: C_11  and  N_12
REMARK    8  A    between atoms: N_15  and  N_16
REMARK    9  A    between atoms: N_19  and  C_20
REMARK                            x       y       z     vdW  Elec       q    Type
REMARK                         _______ _______ _______ _____ _____    ______ ____
ROOT
ATOM      1  C   UNL     1     -10.589  -1.191  20.199  0.00  0.00    +0.000 C 
ENDROOT
BRANCH   1   6
ATOM      2  C   UNL     1      -8.606  -3.134  23.066  0.00  0.00    +0.000 C 
ATOM      3  C   UNL     1      -8.914  -2.147  24.187  0.00  0.00    +0.000 C 
ATOM      4  C   UNL     1     -10.382  -1.730  24.132  0.00  0.00    +0.000 C 
ATOM      5  C   UNL     1     -10.656  -1.032  22.797  0.00  0.00    +0.000 C 
ATOM      6  N   UNL     1     -10.304  -1.902  21.591  0.00  0.00    +0.000 N 
ATOM      7  C   UNL     1      -8.895  -2.504  21.700  0.00  0.00    +0.000 C 
ATOM      8  H   UNL     1      -9.229  -4.028  23.182  0.00  0.00    +0.000 HD
ATOM      9  H   UNL     1      -8.278  -1.257  24.082  0.00  0.00    +0.000 HD
ATOM     10  H   UNL     1      -8.679  -2.581  25.166  0.00  0.00    +0.000 HD
ATOM     11  H   UNL     1     -10.548  -0.995  24.930  0.00  0.00    +0.000 HD
ATOM     12  H   UNL     1     -10.053  -0.124  22.732  0.00  0.00    +0.000 HD
ATOM     13  H   UNL     1     -11.700  -0.739  22.730  0.00  0.00    +0.000 HD
ATOM     14  H   UNL     1     -10.975  -2.685  21.621  0.00  0.00    +0.000 HD
ATOM     15  H   UNL     1      -8.181  -1.704  21.489  0.00  0.00    +0.000 HD
ATOM     16  H   UNL     1      -8.815  -3.284  20.938  0.00  0.00    +0.000 HD
BRANCH   2  17
ATOM     17  C   UNL     1      -7.154  -3.609  23.168  0.00  0.00    +0.000 C 
ATOM     18  H   UNL     1      -7.025  -4.565  22.649  0.00  0.00    +0.000 HD
ATOM     19  H   UNL     1      -6.845  -3.748  24.209  0.00  0.00    +0.000 HD
ATOM     20  H   UNL     1      -6.477  -2.886  22.702  0.00  0.00    +0.000 HD
ENDBRANCH   2  17
BRANCH   4  21
ATOM     21  C   UNL     1     -11.317  -2.910  24.413  0.00  0.00    +0.000 C 
ATOM     22  H   UNL     1     -11.983  -2.733  25.263  0.00  0.00    +0.000 HD
ATOM     23  H   UNL     1     -10.742  -3.814  24.630  0.00  0.00    +0.000 HD
ATOM     24  H   UNL     1     -11.943  -3.121  23.539  0.00  0.00    +0.000 HD
ENDBRANCH   4  21
ENDBRANCH   1   6
BRANCH   1  25
ATOM     25  C   UNL     1     -11.263   0.174  20.441  0.00  0.00    +0.000 C 
ATOM     26  H   UNL     1     -11.158   0.847  19.586  0.00  0.00    +0.000 HD
ATOM     27  H   UNL     1     -10.862   0.682  21.323  0.00  0.00    +0.000 HD
ATOM     28  H   UNL     1     -12.340   0.057  20.616  0.00  0.00    +0.000 HD
ENDBRANCH   1  25
BRANCH   1  29
ATOM     29  C   UNL     1      -9.245  -0.978  19.470  0.00  0.00    +0.000 C 
ATOM     30  H   UNL     1      -8.472  -1.674  19.806  0.00  0.00    +0.000 HD
ATOM     31  H   UNL     1      -8.849   0.027  19.662  0.00  0.00    +0.000 HD
ATOM     32  H   UNL     1      -9.356  -1.088  18.386  0.00  0.00    +0.000 HD
ENDBRANCH   1  29
BRANCH   1  33
ATOM     33  C   UNL     1     -11.507  -2.076  19.272  0.00  0.00    +0.000 C 
ATOM     34  H   UNL     1     -11.340  -1.795  18.222  0.00  0.00    +0.000 HD
ATOM     35  H   UNL     1     -12.567  -1.880  19.468  0.00  0.00    +0.000 HD
BRANCH  33  36
ATOM     36  N   UNL     1     -11.254  -3.516  19.362  0.00  0.00    +0.000 N 
ATOM     37  C   UNL     1     -11.505  -4.389  18.338  0.00  0.00    +0.000 C 
ATOM     38  O   UNL     1     -12.093  -4.063  17.309  0.00  0.00    +0.000 OA
ATOM     39  N   UNL     1     -11.146  -5.678  18.600  0.00  0.00    +0.000 N 
ATOM     40  H   UNL     1     -10.698  -3.858  20.140  0.00  0.00    +0.000 HD
ATOM     41  H   UNL     1     -10.568  -5.964  19.386  0.00  0.00    +0.000 HD
BRANCH  39  42
ATOM     42  N   UNL     1     -11.428  -6.702  17.658  0.00  0.00    +0.000 N 
ATOM     43  C   UNL     1     -10.492  -7.739  17.601  0.00  0.00    +0.000 C 
ATOM     44  O   UNL     1      -9.500  -7.698  18.331  0.00  0.00    +0.000 OA
ATOM     45  N   UNL     1     -10.775  -8.676  16.642  0.00  0.00    +0.000 N 
ATOM     46  H   UNL     1     -12.412  -6.915  17.515  0.00  0.00    +0.000 HD
ATOM     47  H   UNL     1     -11.481  -8.433  15.957  0.00  0.00    +0.000 HD
BRANCH  45  48
ATOM     48  C   UNL     1      -9.975  -9.811  16.330  0.00  0.00    +0.000 A 
ATOM     49  C   UNL     1      -9.628 -10.782  17.274  0.00  0.00    +0.000 A 
ATOM     50  C   UNL     1      -8.832 -11.881  16.922  0.00  0.00    +0.000 A 
ATOM     51  C   UNL     1      -8.372 -12.022  15.618  0.00  0.00    +0.000 A 
ATOM     52  C   UNL     1      -8.714 -11.068  14.663  0.00  0.00    +0.000 A 
ATOM     53  C   UNL     1      -9.518  -9.973  15.013  0.00  0.00    +0.000 A 
ATOM     54  H   UNL     1      -9.966 -10.722  18.303  0.00  0.00    +0.000 HD
ATOM     55  H   UNL     1      -8.574 -12.622  17.675  0.00  0.00    +0.000 HD
ATOM     56  H   UNL     1      -7.752 -12.873  15.348  0.00  0.00    +0.000 HD
ATOM     57  H   UNL     1      -8.346 -11.176  13.644  0.00  0.00    +0.000 HD
ATOM     58  H   UNL     1      -9.755  -9.245  14.242  0.00  0.00    +0.000 HD
ENDBRANCH  45  48
ENDBRANCH  39  42
ENDBRANCH  33  36
ENDBRANCH   1  33
TORSDOF 9
ENDMDL
MODEL 3
REMARK VINA RESULT:    -9.856      0.812      1.860
REMARK INTER + INTRA:         -14.290
REMARK INTER:                 -14.072
REMARK INTRA:                  -0.218
REMARK UNBOUND:                -0.401
REMARK  Name = 
REMARK  9 active torsions:
REMARK  status: ('A' for Active; 'I' for Inactive)
REMARK    1  A    between atoms: C_1  and  C_2
REMARK    2  A    between atoms: C_4  and  C_5
REMARK    3  A    between atoms: N_7  and  C_8
REMARK    4  A    between atoms: C_8  and  C_9
REMARK    5  A    between atoms: C_8  and  C_10
REMARK    6  A    between atoms: C_8  and  C_11
REMARK    7  A    between atoms: C_11  and  N_12
REMARK    8  A    between atoms: N_15  and  N_16
REMARK    9  A    between atoms: N_19  and  C_20
REMARK                            x       y       z     vdW  Elec       q    Type
REMARK                         _______ _______ _______ _____ _____    ______ ____
ROOT
ATOM      1  C   UNL     1      -9.934  -1.707  20.104  0.00  0.00    +0.000 C 
ENDROOT
BRANCH   1   6
ATOM      2  C   UNL     1      -8.436  -2.157  23.776  0.00  0.00    +0.000 C 
ATOM      3  C   UNL     1      -7.970  -3.597  23.595  0.00  0.00    +0.000 C 
ATOM      4  C   UNL     1      -7.288  -3.764  22.240  0.00  0.00    +0.000 C 
ATOM      5  C   UNL     1      -8.292  -3.449  21.129  0.00  0.00    +0.000 C 
ATOM      6  N   UNL     1      -8.893  -2.049  21.254  0.00  0.00    +0.000 N 
ATOM      7  C   UNL     1      -9.422  -1.768  22.669  0.00  0.00    +0.000 C 
ATOM      8  H   UNL     1      -7.573  -1.483  23.733  0.00  0.00    +0.000 HD
ATOM      9  H   UNL     1      -8.833  -4.276  23.655  0.00  0.00    +0.000 HD
ATOM     10  H   UNL     1      -7.289  -3.892  24.402  0.00  0.00    +0.000 HD
ATOM     11  H   UNL     1      -7.003  -4.819  22.140  0.00  0.00    +0.000 HD
ATOM     12  H   UNL     1      -9.117  -4.163  21.172  0.00  0.00    +0.000 HD
ATOM     13  H   UNL     1      -7.823  -3.547  20.154  0.00  0.00    +0.000 HD
ATOM     14  H   UNL     1      -8.106  -1.404  21.088  0.00  0.00    +0.000 HD
ATOM     15  H   UNL     1     -10.360  -2.317  22.782  0.00  0.00    +0.000 HD
ATOM     16  H   UNL     1      -9.609  -0.693  22.738  0.00  0.00    +0.000 HD
BRANCH   2  17
ATOM     17  C   UNL     1      -9.053  -1.973  25.164  0.00  0.00    +0.000 C 
ATOM     18  H   UNL     1      -9.109  -2.933  25.691  0.00  0.00    +0.000 HD
ATOM     19  H   UNL     1     -10.066  -1.562  25.107  0.00  0.00    +0.000 HD
ATOM     20  H   UNL     1      -8.443  -1.298  25.773  0.00  0.00    +0.000 HD
ENDBRANCH   2  17
BRANCH   4  21
ATOM     21  C   UNL     1      -5.996  -2.945  22.152  0.00  0.00    +0.000 C 
ATOM     22  H   UNL     1      -6.157  -1.876  22.318  0.00  0.00    +0.000 HD
ATOM     23  H   UNL     1      -5.534  -3.058  21.167  0.00  0.00    +0.000 HD
ATOM     24  H   UNL     1      -5.271  -3.290  22.897  0.00  0.00    +0.000 HD
ENDBRANCH   4  21
ENDBRANCH   1   6
BRANCH   1  25
ATOM     25  C   UNL     1     -11.367  -1.749  20.669  0.00  0.00    +0.000 C 
ATOM     26  H   UNL     1     -11.457  -2.424  21.526  0.00  0.00    +0.000 HD
ATOM     27  H   UNL     1     -12.099  -2.059  19.917  0.00  0.00    +0.000 HD
ATOM     28  H   UNL     1     -11.684  -0.759  21.018  0.00  0.00    +0.000 HD
ENDBRANCH   1  25
BRANCH   1  29
ATOM     29  C   UNL     1      -9.633  -0.289  19.572  0.00  0.00    +0.000 C 
ATOM     30  H   UNL     1      -9.252  -0.299  18.547  0.00  0.00    +0.000 HD
ATOM     31  H   UNL     1      -8.860   0.202  20.177  0.00  0.00    +0.000 HD
ATOM     32  H   UNL     1     -10.526   0.346  19.598  0.00  0.00    +0.000 HD
ENDBRANCH   1  29
BRANCH   1  33
ATOM     33  C   UNL     1      -9.813  -2.712  18.895  0.00  0.00    +0.000 C 
ATOM     34  H   UNL     1      -8.759  -2.996  18.763  0.00  0.00    +0.000 HD
ATOM     35  H   UNL     1     -10.112  -2.231  17.956  0.00  0.00    +0.000 HD
BRANCH  33  36
ATOM     36  N   UNL     1     -10.563  -3.959  19.062  0.00  0.00    +0.000 N 
ATOM     37  C   UNL     1     -10.631  -4.930  18.100  0.00  0.00    +0.000 C 
ATOM     38  O   UNL     1     -10.188  -4.779  16.964  0.00  0.00    +0.000 OA
ATOM     39  N   UNL     1     -11.330  -6.040  18.474  0.00  0.00    +0.000 N 
ATOM     40  H   UNL     1     -10.890  -4.200  19.993  0.00  0.00    +0.000 HD
ATOM     41  H   UNL     1     -11.617  -6.243  19.428  0.00  0.00    +0.000 HD
BRANCH  39  42
ATOM     42  N   UNL     1     -11.552  -7.089  17.544  0.00  0.00    +0.000 N 
ATOM     43  C   UNL     1     -10.569  -8.082  17.513  0.00  0.00    +0.000 C 
ATOM     44  O   UNL     1      -9.590  -7.985  18.256  0.00  0.00    +0.000 OA
ATOM     45  N   UNL     1     -10.796  -9.045  16.565  0.00  0.00    +0.000 N 
ATOM     46  H   UNL     1     -12.523  -7.348  17.391  0.00  0.00    +0.000 HD
ATOM     47  H   UNL     1     -11.503  -8.844  15.867  0.00  0.00    +0.000 HD
BRANCH  45  48
ATOM     48  C   UNL     1      -9.940 -10.145  16.280  0.00  0.00    +0.000 A 
ATOM     49  C   UNL     1      -9.535 -11.068  17.251  0.00  0.00    +0.000 A 
ATOM     50  C   UNL     1      -8.685 -12.134  16.925  0.00  0.00    +0.000 A 
ATOM     51  C   UNL     1      -8.230 -12.292  15.620  0.00  0.00    +0.000 A 
ATOM     52  C   UNL     1      -8.630 -11.387  14.640  0.00  0.00    +0.000 A 
ATOM     53  C   UNL     1      -9.487 -10.326  14.965  0.00  0.00    +0.000 A 
ATOM     54  H   UNL     1      -9.866 -10.992  18.281  0.00  0.00    +0.000 HD
ATOM     55  H   UNL     1      -8.382 -12.836  17.698  0.00  0.00    +0.000 HD
ATOM     56  H   UNL     1      -7.569 -13.118  15.371  0.00  0.00    +0.000 HD
ATOM     57  H   UNL     1      -8.266 -11.509  13.622  0.00  0.00    +0.000 HD
ATOM     58  H   UNL     1      -9.768  -9.636  14.174  0.00  0.00    +0.000 HD
ENDBRANCH  45  48
ENDBRANCH  39  42
ENDBRANCH  33  36
ENDBRANCH   1  33
TORSDOF 9
ENDMDL
MODEL 4
REMARK VINA RESULT:    -9.607      2.016      2.893
REMARK INTER + INTRA:         -13.939
REMARK INTER:                 -13.397
REMARK INTRA:                  -0.542
REMARK UNBOUND:                -0.401
REMARK  Name = 
REMARK  9 active torsions:
REMARK  status: ('A' for Active; 'I' for Inactive)
REMARK    1  A    between atoms: C_1  and  C_2
REMARK    2  A    between atoms: C_4  and  C_5
REMARK    3  A    between atoms: N_7  and  C_8
REMARK    4  A    between atoms: C_8  and  C_9
REMARK    5  A    between atoms: C_8  and  C_10
REMARK    6  A    between atoms: C_8  and  C_11
REMARK    7  A    between atoms: C_11  and  N_12
REMARK    8  A    between atoms: N_15  and  N_16
REMARK    9  A    between atoms: N_19  and  C_20
REMARK                            x       y       z     vdW  Elec       q    Type
REMARK                         _______ _______ _______ _____ _____    ______ ____
ROOT
ATOM      1  C   UNL     1     -10.408  -2.881  19.167  0.00  0.00    +0.000 C 
ENDROOT
BRANCH   1   6
ATOM      2  C   UNL     1      -8.697  -1.783  22.602  0.00  0.00    +0.000 C 
ATOM      3  C   UNL     1      -9.730  -0.725  22.977  0.00  0.00    +0.000 C 
ATOM      4  C   UNL     1     -11.139  -1.250  22.717  0.00  0.00    +0.000 C 
ATOM      5  C   UNL     1     -11.296  -1.556  21.226  0.00  0.00    +0.000 C 
ATOM      6  N   UNL     1     -10.254  -2.551  20.714  0.00  0.00    +0.000 N 
ATOM      7  C   UNL     1      -8.826  -2.159  21.122  0.00  0.00    +0.000 C 
ATOM      8  H   UNL     1      -8.854  -2.681  23.210  0.00  0.00    +0.000 HD
ATOM      9  H   UNL     1      -9.563   0.183  22.380  0.00  0.00    +0.000 HD
ATOM     10  H   UNL     1      -9.622  -0.428  24.027  0.00  0.00    +0.000 HD
ATOM     11  H   UNL     1     -11.843  -0.445  22.966  0.00  0.00    +0.000 HD
ATOM     12  H   UNL     1     -11.176  -0.634  20.652  0.00  0.00    +0.000 HD
ATOM     13  H   UNL     1     -12.288  -1.945  21.020  0.00  0.00    +0.000 HD
ATOM     14  H   UNL     1     -10.476  -3.438  21.189  0.00  0.00    +0.000 HD
ATOM     15  H   UNL     1      -8.522  -1.323  20.487  0.00  0.00    +0.000 HD
ATOM     16  H   UNL     1      -8.185  -3.024  20.930  0.00  0.00    +0.000 HD
BRANCH   2  17
ATOM     17  C   UNL     1      -7.289  -1.284  22.932  0.00  0.00    +0.000 C 
ATOM     18  H   UNL     1      -7.138  -0.270  22.544  0.00  0.00    +0.000 HD
ATOM     19  H   UNL     1      -6.517  -1.928  22.497  0.00  0.00    +0.000 HD
ATOM     20  H   UNL     1      -7.134  -1.248  24.016  0.00  0.00    +0.000 HD
ENDBRANCH   2  17
BRANCH   4  21
ATOM     21  C   UNL     1     -11.479  -2.434  23.627  0.00  0.00    +0.000 C 
ATOM     22  H   UNL     1     -11.338  -2.210  24.689  0.00  0.00    +0.000 HD
ATOM     23  H   UNL     1     -10.850  -3.296  23.389  0.00  0.00    +0.000 HD
ATOM     24  H   UNL     1     -12.522  -2.740  23.488  0.00  0.00    +0.000 HD
ENDBRANCH   4  21
ENDBRANCH   1   6
BRANCH   1  25
ATOM     25  C   UNL     1     -11.845  -3.360  18.879  0.00  0.00    +0.000 C 
ATOM     26  H   UNL     1     -12.411  -2.641  18.280  0.00  0.00    +0.000 HD
ATOM     27  H   UNL     1     -12.407  -3.554  19.797  0.00  0.00    +0.000 HD
ATOM     28  H   UNL     1     -11.841  -4.301  18.315  0.00  0.00    +0.000 HD
ENDBRANCH   1  25
BRANCH   1  29
ATOM     29  C   UNL     1     -10.124  -1.597  18.359  0.00  0.00    +0.000 C 
ATOM     30  H   UNL     1     -10.174  -0.694  18.975  0.00  0.00    +0.000 HD
ATOM     31  H   UNL     1     -10.868  -1.459  17.564  0.00  0.00    +0.000 HD
ATOM     32  H   UNL     1      -9.136  -1.632  17.885  0.00  0.00    +0.000 HD
ENDBRANCH   1  29
BRANCH   1  33
ATOM     33  C   UNL     1      -9.380  -3.981  18.703  0.00  0.00    +0.000 C 
ATOM     34  H   UNL     1      -8.466  -3.902  19.308  0.00  0.00    +0.000 HD
ATOM     35  H   UNL     1      -9.067  -3.811  17.667  0.00  0.00    +0.000 HD
BRANCH  33  36
ATOM     36  N   UNL     1      -9.857  -5.359  18.847  0.00  0.00    +0.000 N 
ATOM     37  C   UNL     1      -9.020  -6.437  18.951  0.00  0.00    +0.000 C 
ATOM     38  O   UNL     1      -7.804  -6.358  18.793  0.00  0.00    +0.000 OA
ATOM     39  N   UNL     1      -9.660  -7.626  19.137  0.00  0.00    +0.000 N 
ATOM     40  H   UNL     1     -10.837  -5.506  19.066  0.00  0.00    +0.000 HD
ATOM     41  H   UNL     1     -10.644  -7.717  19.376  0.00  0.00    +0.000 HD
BRANCH  39  42
ATOM     42  N   UNL     1      -8.918  -8.836  19.177  0.00  0.00    +0.000 N 
ATOM     43  C   UNL     1      -9.151  -9.718  18.116  0.00  0.00    +0.000 C 
ATOM     44  O   UNL     1      -9.971  -9.414  17.249  0.00  0.00    +0.000 OA
ATOM     45  N   UNL     1      -8.456 -10.894  18.223  0.00  0.00    +0.000 N 
ATOM     46  H   UNL     1      -7.984  -8.771  19.571  0.00  0.00    +0.000 HD
ATOM     47  H   UNL     1      -8.028 -11.094  19.120  0.00  0.00    +0.000 HD
BRANCH  45  48
ATOM     48  C   UNL     1      -8.535 -11.988  17.317  0.00  0.00    +0.000 A 
ATOM     49  C   UNL     1      -8.427 -11.839  15.930  0.00  0.00    +0.000 A 
ATOM     50  C   UNL     1      -8.517 -12.946  15.075  0.00  0.00    +0.000 A 
ATOM     51  C   UNL     1      -8.714 -14.219  15.598  0.00  0.00    +0.000 A 
ATOM     52  C   UNL     1      -8.814 -14.386  16.976  0.00  0.00    +0.000 A 
ATOM     53  C   UNL     1      -8.716 -13.280  17.832  0.00  0.00    +0.000 A 
ATOM     54  H   UNL     1      -8.269 -10.868  15.473  0.00  0.00    +0.000 HD
ATOM     55  H   UNL     1      -8.433 -12.803  14.000  0.00  0.00    +0.000 HD
ATOM     56  H   UNL     1      -8.786 -15.076  14.932  0.00  0.00    +0.000 HD
ATOM     57  H   UNL     1      -8.976 -15.383  17.382  0.00  0.00    +0.000 HD
ATOM     58  H   UNL     1      -8.810 -13.451  18.901  0.00  0.00    +0.000 HD
ENDBRANCH  45  48
ENDBRANCH  39  42
ENDBRANCH  33  36
ENDBRANCH   1  33
TORSDOF 9
ENDMDL
MODEL 5
REMARK VINA RESULT:    -9.586      2.365      9.513
REMARK INTER + INTRA:         -13.910
REMARK INTER:                 -13.575
REMARK INTRA:                  -0.335
REMARK UNBOUND:                -0.401
REMARK  Name = 
REMARK  9 active torsions:
REMARK  status: ('A' for Active; 'I' for Inactive)
REMARK    1  A    between atoms: C_1  and  C_2
REMARK    2  A    between atoms: C_4  and  C_5
REMARK    3  A    between atoms: N_7  and  C_8
REMARK    4  A    between atoms: C_8  and  C_9
REMARK    5  A    between atoms: C_8  and  C_10
REMARK    6  A    between atoms: C_8  and  C_11
REMARK    7  A    between atoms: C_11  and  N_12
REMARK    8  A    between atoms: N_15  and  N_16
REMARK    9  A    between atoms: N_19  and  C_20
REMARK                            x       y       z     vdW  Elec       q    Type
REMARK                         _______ _______ _______ _____ _____    ______ ____
ROOT
ATOM      1  C   UNL     1      -9.466  -8.152  17.688  0.00  0.00    +0.000 C 
ENDROOT
BRANCH   1   6
ATOM      2  C   UNL     1      -8.445 -12.005  17.478  0.00  0.00    +0.000 C 
ATOM      3  C   UNL     1      -9.356 -12.360  16.309  0.00  0.00    +0.000 C 
ATOM      4  C   UNL     1      -9.285 -11.276  15.237  0.00  0.00    +0.000 C 
ATOM      5  C   UNL     1      -9.770  -9.950  15.829  0.00  0.00    +0.000 C 
ATOM      6  N   UNL     1      -8.976  -9.530  17.066  0.00  0.00    +0.000 N 
ATOM      7  C   UNL     1      -8.858 -10.664  18.095  0.00  0.00    +0.000 C 
ATOM      8  H   UNL     1      -7.410 -11.927  17.127  0.00  0.00    +0.000 HD
ATOM      9  H   UNL     1     -10.393 -12.455  16.663  0.00  0.00    +0.000 HD
ATOM     10  H   UNL     1      -9.086 -13.334  15.883  0.00  0.00    +0.000 HD
ATOM     11  H   UNL     1      -9.981 -11.555  14.436  0.00  0.00    +0.000 HD
ATOM     12  H   UNL     1     -10.815 -10.048  16.130  0.00  0.00    +0.000 HD
ATOM     13  H   UNL     1      -9.713  -9.160  15.086  0.00  0.00    +0.000 HD
ATOM     14  H   UNL     1      -8.026  -9.331  16.719  0.00  0.00    +0.000 HD
ATOM     15  H   UNL     1      -9.827 -10.756  18.593  0.00  0.00    +0.000 HD
ATOM     16  H   UNL     1      -8.094 -10.368  18.819  0.00  0.00    +0.000 HD
BRANCH   2  17
ATOM     17  C   UNL     1      -8.460 -13.128  18.518  0.00  0.00    +0.000 C 
ATOM     18  H   UNL     1      -9.441 -13.190  19.003  0.00  0.00    +0.000 HD
ATOM     19  H   UNL     1      -7.708 -12.968  19.299  0.00  0.00    +0.000 HD
ATOM     20  H   UNL     1      -8.264 -14.096  18.045  0.00  0.00    +0.000 HD
ENDBRANCH   2  17
BRANCH   4  21
ATOM     21  C   UNL     1      -7.891 -11.195  14.606  0.00  0.00    +0.000 C 
ATOM     22  H   UNL     1      -7.104 -10.985  15.337  0.00  0.00    +0.000 HD
ATOM     23  H   UNL     1      -7.855 -10.405  13.850  0.00  0.00    +0.000 HD
ATOM     24  H   UNL     1      -7.639 -12.138  14.109  0.00  0.00    +0.000 HD
ENDBRANCH   4  21
ENDBRANCH   1   6
BRANCH   1  25
ATOM     25  C   UNL     1     -10.932  -7.892  17.286  0.00  0.00    +0.000 C 
ATOM     26  H   UNL     1     -11.054  -7.789  16.203  0.00  0.00    +0.000 HD
ATOM     27  H   UNL     1     -11.336  -6.992  17.758  0.00  0.00    +0.000 HD
ATOM     28  H   UNL     1     -11.579  -8.721  17.595  0.00  0.00    +0.000 HD
ENDBRANCH   1  25
BRANCH   1  29
ATOM     29  C   UNL     1      -9.365  -8.242  19.226  0.00  0.00    +0.000 C 
ATOM     30  H   UNL     1     -10.000  -7.509  19.730  0.00  0.00    +0.000 HD
ATOM     31  H   UNL     1      -8.341  -8.036  19.565  0.00  0.00    +0.000 HD
ATOM     32  H   UNL     1      -9.640  -9.239  19.588  0.00  0.00    +0.000 HD
ENDBRANCH   1  29
BRANCH   1  33
ATOM     33  C   UNL     1      -8.567  -6.948  17.213  0.00  0.00    +0.000 C 
ATOM     34  H   UNL     1      -9.140  -6.319  16.517  0.00  0.00    +0.000 HD
ATOM     35  H   UNL     1      -7.701  -7.307  16.646  0.00  0.00    +0.000 HD
BRANCH  33  36
ATOM     36  N   UNL     1      -8.111  -6.067  18.291  0.00  0.00    +0.000 N 
ATOM     37  C   UNL     1      -8.885  -5.075  18.829  0.00  0.00    +0.000 C 
ATOM     38  O   UNL     1      -9.972  -4.746  18.361  0.00  0.00    +0.000 OA
ATOM     39  N   UNL     1      -8.298  -4.406  19.862  0.00  0.00    +0.000 N 
ATOM     40  H   UNL     1      -7.262  -6.318  18.789  0.00  0.00    +0.000 HD
ATOM     41  H   UNL     1      -7.456  -4.713  20.340  0.00  0.00    +0.000 HD
BRANCH  39  42
ATOM     42  N   UNL     1      -8.955  -3.296  20.457  0.00  0.00    +0.000 N 
ATOM     43  C   UNL     1      -8.607  -3.034  21.786  0.00  0.00    +0.000 C 
ATOM     44  O   UNL     1      -7.793  -3.766  22.352  0.00  0.00    +0.000 OA
ATOM     45  N   UNL     1      -9.303  -1.990  22.335  0.00  0.00    +0.000 N 
ATOM     46  H   UNL     1      -9.161  -2.518  19.836  0.00  0.00    +0.000 HD
ATOM     47  H   UNL     1     -10.114  -1.660  21.825  0.00  0.00    +0.000 HD
BRANCH  45  48
ATOM     48  C   UNL     1      -9.189  -1.534  23.678  0.00  0.00    +0.000 A 
ATOM     49  C   UNL     1      -8.838  -0.222  24.011  0.00  0.00    +0.000 A 
ATOM     50  C   UNL     1      -8.731   0.182  25.349  0.00  0.00    +0.000 A 
ATOM     51  C   UNL     1      -8.977  -0.726  26.374  0.00  0.00    +0.000 A 
ATOM     52  C   UNL     1      -9.336  -2.034  26.061  0.00  0.00    +0.000 A 
ATOM     53  C   UNL     1      -9.451  -2.435  24.722  0.00  0.00    +0.000 A 
ATOM     54  H   UNL     1      -8.641   0.525  23.249  0.00  0.00    +0.000 HD
ATOM     55  H   UNL     1      -8.454   1.207  25.582  0.00  0.00    +0.000 HD
ATOM     56  H   UNL     1      -8.890  -0.411  27.412  0.00  0.00    +0.000 HD
ATOM     57  H   UNL     1      -9.520  -2.744  26.865  0.00  0.00    +0.000 HD
ATOM     58  H   UNL     1      -9.723  -3.467  24.519  0.00  0.00    +0.000 HD
ENDBRANCH  45  48
ENDBRANCH  39  42
ENDBRANCH  33  36
ENDBRANCH   1  33
TORSDOF 9
ENDMDL
MODEL 6
REMARK VINA RESULT:    -9.376      1.754      3.778
REMARK INTER + INTRA:         -13.613
REMARK INTER:                 -13.241
REMARK INTRA:                  -0.373
REMARK UNBOUND:                -0.401
REMARK  Name = 
REMARK  9 active torsions:
REMARK  status: ('A' for Active; 'I' for Inactive)
REMARK    1  A    between atoms: C_1  and  C_2
REMARK    2  A    between atoms: C_4  and  C_5
REMARK    3  A    between atoms: N_7  and  C_8
REMARK    4  A    between atoms: C_8  and  C_9
REMARK    5  A    between atoms: C_8  and  C_10
REMARK    6  A    between atoms: C_8  and  C_11
REMARK    7  A    between atoms: C_11  and  N_12
REMARK    8  A    between atoms: N_15  and  N_16
REMARK    9  A    between atoms: N_19  and  C_20
REMARK                            x       y       z     vdW  Elec       q    Type
REMARK                         _______ _______ _______ _____ _____    ______ ____
ROOT
ATOM      1  C   UNL     1      -8.325  -2.688  22.343  0.00  0.00    +0.000 C 
ENDROOT
BRANCH   1   6
ATOM      2  C   UNL     1     -11.868  -1.098  21.423  0.00  0.00    +0.000 C 
ATOM      3  C   UNL     1     -11.467  -0.571  20.049  0.00  0.00    +0.000 C 
ATOM      4  C   UNL     1     -10.648  -1.620  19.301  0.00  0.00    +0.000 C 
ATOM      5  C   UNL     1      -9.368  -1.914  20.087  0.00  0.00    +0.000 C 
ATOM      6  N   UNL     1      -9.645  -2.375  21.518  0.00  0.00    +0.000 N 
ATOM      7  C   UNL     1     -10.625  -1.445  22.249  0.00  0.00    +0.000 C 
ATOM      8  H   UNL     1     -12.478  -2.001  21.306  0.00  0.00    +0.000 HD
ATOM      9  H   UNL     1     -10.869   0.344  20.163  0.00  0.00    +0.000 HD
ATOM     10  H   UNL     1     -12.351  -0.291  19.464  0.00  0.00    +0.000 HD
ATOM     11  H   UNL     1     -10.353  -1.184  18.338  0.00  0.00    +0.000 HD
ATOM     12  H   UNL     1      -8.764  -1.006  20.148  0.00  0.00    +0.000 HD
ATOM     13  H   UNL     1      -8.776  -2.670  19.579  0.00  0.00    +0.000 HD
ATOM     14  H   UNL     1     -10.109  -3.291  21.418  0.00  0.00    +0.000 HD
ATOM     15  H   UNL     1     -10.077  -0.537  22.515  0.00  0.00    +0.000 HD
ATOM     16  H   UNL     1     -10.949  -1.963  23.156  0.00  0.00    +0.000 HD
BRANCH   2  17
ATOM     17  C   UNL     1     -12.751  -0.076  22.142  0.00  0.00    +0.000 C 
ATOM     18  H   UNL     1     -12.772  -0.276  23.219  0.00  0.00    +0.000 HD
ATOM     19  H   UNL     1     -13.782  -0.101  21.775  0.00  0.00    +0.000 HD
ATOM     20  H   UNL     1     -12.362   0.939  22.002  0.00  0.00    +0.000 HD
ENDBRANCH   2  17
BRANCH   4  21
ATOM     21  C   UNL     1     -11.479  -2.869  18.988  0.00  0.00    +0.000 C 
ATOM     22  H   UNL     1     -11.244  -3.712  19.645  0.00  0.00    +0.000 HD
ATOM     23  H   UNL     1     -11.308  -3.198  17.960  0.00  0.00    +0.000 HD
ATOM     24  H   UNL     1     -12.548  -2.655  19.092  0.00  0.00    +0.000 HD
ENDBRANCH   4  21
ENDBRANCH   1   6
BRANCH   1  25
ATOM     25  C   UNL     1      -7.514  -1.392  22.539  0.00  0.00    +0.000 C 
ATOM     26  H   UNL     1      -6.719  -1.281  21.796  0.00  0.00    +0.000 HD
ATOM     27  H   UNL     1      -7.059  -1.336  23.532  0.00  0.00    +0.000 HD
ATOM     28  H   UNL     1      -8.155  -0.507  22.444  0.00  0.00    +0.000 HD
ENDBRANCH   1  25
BRANCH   1  29
ATOM     29  C   UNL     1      -8.727  -3.255  23.721  0.00  0.00    +0.000 C 
ATOM     30  H   UNL     1      -7.875  -3.352  24.399  0.00  0.00    +0.000 HD
ATOM     31  H   UNL     1      -9.150  -4.263  23.624  0.00  0.00    +0.000 HD
ATOM     32  H   UNL     1      -9.481  -2.626  24.209  0.00  0.00    +0.000 HD
ENDBRANCH   1  29
BRANCH   1  33
ATOM     33  C   UNL     1      -7.430  -3.766  21.620  0.00  0.00    +0.000 C 
ATOM     34  H   UNL     1      -6.583  -4.030  22.270  0.00  0.00    +0.000 HD
ATOM     35  H   UNL     1      -6.986  -3.356  20.706  0.00  0.00    +0.000 HD
BRANCH  33  36
ATOM     36  N   UNL     1      -8.121  -5.019  21.306  0.00  0.00    +0.000 N 
ATOM     37  C   UNL     1      -8.253  -5.506  20.034  0.00  0.00    +0.000 C 
ATOM     38  O   UNL     1      -7.928  -4.868  19.035  0.00  0.00    +0.000 OA
ATOM     39  N   UNL     1      -8.877  -6.716  19.961  0.00  0.00    +0.000 N 
ATOM     40  H   UNL     1      -8.347  -5.646  22.072  0.00  0.00    +0.000 HD
ATOM     41  H   UNL     1      -9.063  -7.316  20.760  0.00  0.00    +0.000 HD
BRANCH  39  42
ATOM     42  N   UNL     1      -9.157  -7.298  18.696  0.00  0.00    +0.000 N 
ATOM     43  C   UNL     1      -8.907  -8.671  18.599  0.00  0.00    +0.000 C 
ATOM     44  O   UNL     1      -8.456  -9.273  19.575  0.00  0.00    +0.000 OA
ATOM     45  N   UNL     1      -9.139  -9.179  17.348  0.00  0.00    +0.000 N 
ATOM     46  H   UNL     1      -9.943  -6.901  18.189  0.00  0.00    +0.000 HD
ATOM     47  H   UNL     1      -9.257  -8.510  16.595  0.00  0.00    +0.000 HD
BRANCH  45  48
ATOM     48  C   UNL     1      -8.925 -10.528  16.949  0.00  0.00    +0.000 A 
ATOM     49  C   UNL     1      -8.757 -11.575  17.861  0.00  0.00    +0.000 A 
ATOM     50  C   UNL     1      -8.543 -12.890  17.422  0.00  0.00    +0.000 A 
ATOM     51  C   UNL     1      -8.496 -13.173  16.061  0.00  0.00    +0.000 A 
ATOM     52  C   UNL     1      -8.670 -12.143  15.140  0.00  0.00    +0.000 A 
ATOM     53  C   UNL     1      -8.893 -10.831  15.579  0.00  0.00    +0.000 A 
ATOM     54  H   UNL     1      -8.790 -11.408  18.932  0.00  0.00    +0.000 HD
ATOM     55  H   UNL     1      -8.412 -13.686  18.150  0.00  0.00    +0.000 HD
ATOM     56  H   UNL     1      -8.327 -14.192  15.723  0.00  0.00    +0.000 HD
ATOM     57  H   UNL     1      -8.626 -12.367  14.075  0.00  0.00    +0.000 HD
ATOM     58  H   UNL     1      -9.014 -10.054  14.829  0.00  0.00    +0.000 HD
ENDBRANCH  45  48
ENDBRANCH  39  42
ENDBRANCH  33  36
ENDBRANCH   1  33
TORSDOF 9
ENDMDL
MODEL 7
REMARK VINA RESULT:    -9.356      1.878      3.004
REMARK INTER + INTRA:         -13.586
REMARK INTER:                 -13.428
REMARK INTRA:                  -0.158
REMARK UNBOUND:                -0.401
REMARK  Name = 
REMARK  9 active torsions:
REMARK  status: ('A' for Active; 'I' for Inactive)
REMARK    1  A    between atoms: C_1  and  C_2
REMARK    2  A    between atoms: C_4  and  C_5
REMARK    3  A    between atoms: N_7  and  C_8
REMARK    4  A    between atoms: C_8  and  C_9
REMARK    5  A    between atoms: C_8  and  C_10
REMARK    6  A    between atoms: C_8  and  C_11
REMARK    7  A    between atoms: C_11  and  N_12
REMARK    8  A    between atoms: N_15  and  N_16
REMARK    9  A    between atoms: N_19  and  C_20
REMARK                            x       y       z     vdW  Elec       q    Type
REMARK                         _______ _______ _______ _____ _____    ______ ____
ROOT
ATOM      1  C   UNL     1     -10.445  -1.935  18.953  0.00  0.00    +0.000 C 
ENDROOT
BRANCH   1   6
ATOM      2  C   UNL     1     -10.926  -1.618  22.902  0.00  0.00    +0.000 C 
ATOM      3  C   UNL     1     -10.936  -0.094  22.951  0.00  0.00    +0.000 C 
ATOM      4  C   UNL     1     -11.794   0.465  21.819  0.00  0.00    +0.000 C 
ATOM      5  C   UNL     1     -11.196   0.038  20.476  0.00  0.00    +0.000 C 
ATOM      6  N   UNL     1     -11.060  -1.479  20.344  0.00  0.00    +0.000 N 
ATOM      7  C   UNL     1     -10.368  -2.109  21.562  0.00  0.00    +0.000 C 
ATOM      8  H   UNL     1     -11.949  -1.996  23.018  0.00  0.00    +0.000 HD
ATOM      9  H   UNL     1      -9.909   0.286  22.851  0.00  0.00    +0.000 HD
ATOM     10  H   UNL     1     -11.305   0.264  23.920  0.00  0.00    +0.000 HD
ATOM     11  H   UNL     1     -11.742   1.560  21.873  0.00  0.00    +0.000 HD
ATOM     12  H   UNL     1     -10.196   0.465  20.373  0.00  0.00    +0.000 HD
ATOM     13  H   UNL     1     -11.800   0.413  19.656  0.00  0.00    +0.000 HD
ATOM     14  H   UNL     1     -12.029  -1.833  20.325  0.00  0.00    +0.000 HD
ATOM     15  H   UNL     1      -9.302  -1.882  21.486  0.00  0.00    +0.000 HD
ATOM     16  H   UNL     1     -10.524  -3.190  21.500  0.00  0.00    +0.000 HD
BRANCH   2  17
ATOM     17  C   UNL     1     -10.127  -2.178  24.080  0.00  0.00    +0.000 C 
ATOM     18  H   UNL     1      -9.194  -2.634  23.731  0.00  0.00    +0.000 HD
ATOM     19  H   UNL     1     -10.691  -2.942  24.626  0.00  0.00    +0.000 HD
ATOM     20  H   UNL     1      -9.861  -1.380  24.782  0.00  0.00    +0.000 HD
ENDBRANCH   2  17
BRANCH   4  21
ATOM     21  C   UNL     1     -13.268   0.082  21.985  0.00  0.00    +0.000 C 
ATOM     22  H   UNL     1     -13.943   0.726  21.413  0.00  0.00    +0.000 HD
ATOM     23  H   UNL     1     -13.568   0.146  23.035  0.00  0.00    +0.000 HD
ATOM     24  H   UNL     1     -13.437  -0.950  21.657  0.00  0.00    +0.000 HD
ENDBRANCH   4  21
ENDBRANCH   1   6
BRANCH   1  25
ATOM     25  C   UNL     1      -9.624  -0.781  18.344  0.00  0.00    +0.000 C 
ATOM     26  H   UNL     1      -9.933  -0.545  17.321  0.00  0.00    +0.000 HD
ATOM     27  H   UNL     1      -8.552  -0.999  18.331  0.00  0.00    +0.000 HD
ATOM     28  H   UNL     1      -9.745   0.140  18.926  0.00  0.00    +0.000 HD
ENDBRANCH   1  25
BRANCH   1  29
ATOM     29  C   UNL     1      -9.522  -3.148  19.196  0.00  0.00    +0.000 C 
ATOM     30  H   UNL     1      -9.687  -3.951  18.472  0.00  0.00    +0.000 HD
ATOM     31  H   UNL     1      -9.706  -3.591  20.183  0.00  0.00    +0.000 HD
ATOM     32  H   UNL     1      -8.465  -2.863  19.153  0.00  0.00    +0.000 HD
ENDBRANCH   1  29
BRANCH   1  33
ATOM     33  C   UNL     1     -11.567  -2.377  17.938  0.00  0.00    +0.000 C 
ATOM     34  H   UNL     1     -11.251  -2.127  16.915  0.00  0.00    +0.000 HD
ATOM     35  H   UNL     1     -12.492  -1.816  18.109  0.00  0.00    +0.000 HD
BRANCH  33  36
ATOM     36  N   UNL     1     -11.861  -3.812  17.943  0.00  0.00    +0.000 N 
ATOM     37  C   UNL     1     -11.436  -4.670  16.966  0.00  0.00    +0.000 C 
ATOM     38  O   UNL     1     -10.893  -4.290  15.931  0.00  0.00    +0.000 OA
ATOM     39  N   UNL     1     -11.764  -5.975  17.185  0.00  0.00    +0.000 N 
ATOM     40  H   UNL     1     -12.233  -4.222  18.795  0.00  0.00    +0.000 HD
ATOM     41  H   UNL     1     -12.114  -6.339  18.068  0.00  0.00    +0.000 HD
BRANCH  39  42
ATOM     42  N   UNL     1     -11.459  -6.961  16.209  0.00  0.00    +0.000 N 
ATOM     43  C   UNL     1     -10.769  -8.081  16.683  0.00  0.00    +0.000 C 
ATOM     44  O   UNL     1     -10.459  -8.139  17.874  0.00  0.00    +0.000 OA
ATOM     45  N   UNL     1     -10.448  -8.979  15.699  0.00  0.00    +0.000 N 
ATOM     46  H   UNL     1     -12.144  -7.078  15.468  0.00  0.00    +0.000 HD
ATOM     47  H   UNL     1     -10.546  -8.664  14.741  0.00  0.00    +0.000 HD
BRANCH  45  48
ATOM     48  C   UNL     1      -9.710 -10.181  15.884  0.00  0.00    +0.000 A 
ATOM     49  C   UNL     1      -9.606 -10.831  17.118  0.00  0.00    +0.000 A 
ATOM     50  C   UNL     1      -8.862 -12.012  17.254  0.00  0.00    +0.000 A 
ATOM     51  C   UNL     1      -8.212 -12.558  16.153  0.00  0.00    +0.000 A 
ATOM     52  C   UNL     1      -8.311 -11.929  14.915  0.00  0.00    +0.000 A 
ATOM     53  C   UNL     1      -9.063 -10.753  14.778  0.00  0.00    +0.000 A 
ATOM     54  H   UNL     1     -10.099 -10.448  18.005  0.00  0.00    +0.000 HD
ATOM     55  H   UNL     1      -8.795 -12.497  18.225  0.00  0.00    +0.000 HD
ATOM     56  H   UNL     1      -7.633 -13.472  16.262  0.00  0.00    +0.000 HD
ATOM     57  H   UNL     1      -7.795 -12.355  14.057  0.00  0.00    +0.000 HD
ATOM     58  H   UNL     1      -9.107 -10.287  13.797  0.00  0.00    +0.000 HD
ENDBRANCH  45  48
ENDBRANCH  39  42
ENDBRANCH  33  36
ENDBRANCH   1  33
TORSDOF 9
ENDMDL
MODEL 8
REMARK VINA RESULT:    -9.182      4.381      6.803
REMARK INTER + INTRA:         -13.340
REMARK INTER:                 -12.500
REMARK INTRA:                  -0.840
REMARK UNBOUND:                -0.401
REMARK  Name = 
REMARK  9 active torsions:
REMARK  status: ('A' for Active; 'I' for Inactive)
REMARK    1  A    between atoms: C_1  and  C_2
REMARK    2  A    between atoms: C_4  and  C_5
REMARK    3  A    between atoms: N_7  and  C_8
REMARK    4  A    between atoms: C_8  and  C_9
REMARK    5  A    between atoms: C_8  and  C_10
REMARK    6  A    between atoms: C_8  and  C_11
REMARK    7  A    between atoms: C_11  and  N_12
REMARK    8  A    between atoms: N_15  and  N_16
REMARK    9  A    between atoms: N_19  and  C_20
REMARK                            x       y       z     vdW  Elec       q    Type
REMARK                         _______ _______ _______ _____ _____    ______ ____
ROOT
ATOM      1  C   UNL     1     -11.525  -1.319  15.242  0.00  0.00    +0.000 C 
ENDROOT
BRANCH   1   6
ATOM      2  C   UNL     1     -13.915  -0.868  12.077  0.00  0.00    +0.000 C 
ATOM      3  C   UNL     1     -12.825  -1.004  11.019  0.00  0.00    +0.000 C 
ATOM      4  C   UNL     1     -11.887  -2.156  11.374  0.00  0.00    +0.000 C 
ATOM      5  C   UNL     1     -11.211  -1.860  12.715  0.00  0.00    +0.000 C 
ATOM      6  N   UNL     1     -12.214  -1.622  13.844  0.00  0.00    +0.000 N 
ATOM      7  C   UNL     1     -13.297  -0.605  13.455  0.00  0.00    +0.000 C 
ATOM      8  H   UNL     1     -14.499  -1.794  12.124  0.00  0.00    +0.000 HD
ATOM      9  H   UNL     1     -12.248  -0.071  10.960  0.00  0.00    +0.000 HD
ATOM     10  H   UNL     1     -13.261  -1.161  10.026  0.00  0.00    +0.000 HD
ATOM     11  H   UNL     1     -11.103  -2.192  10.608  0.00  0.00    +0.000 HD
ATOM     12  H   UNL     1     -10.604  -0.957  12.623  0.00  0.00    +0.000 HD
ATOM     13  H   UNL     1     -10.550  -2.675  12.994  0.00  0.00    +0.000 HD
ATOM     14  H   UNL     1     -12.683  -2.531  13.980  0.00  0.00    +0.000 HD
ATOM     15  H   UNL     1     -12.839   0.387  13.485  0.00  0.00    +0.000 HD
ATOM     16  H   UNL     1     -14.089  -0.671  14.205  0.00  0.00    +0.000 HD
BRANCH   2  17
ATOM     17  C   UNL     1     -14.896   0.238  11.683  0.00  0.00    +0.000 C 
ATOM     18  H   UNL     1     -15.166   0.842  12.557  0.00  0.00    +0.000 HD
ATOM     19  H   UNL     1     -15.819  -0.172  11.259  0.00  0.00    +0.000 HD
ATOM     20  H   UNL     1     -14.447   0.909  10.944  0.00  0.00    +0.000 HD
ENDBRANCH   2  17
BRANCH   4  21
ATOM     21  C   UNL     1     -12.610  -3.506  11.334  0.00  0.00    +0.000 C 
ATOM     22  H   UNL     1     -13.180  -3.658  10.412  0.00  0.00    +0.000 HD
ATOM     23  H   UNL     1     -13.310  -3.594  12.169  0.00  0.00    +0.000 HD
ATOM     24  H   UNL     1     -11.892  -4.329  11.419  0.00  0.00    +0.000 HD
ENDBRANCH   4  21
ENDBRANCH   1   6
BRANCH   1  25
ATOM     25  C   UNL     1     -11.215   0.187  15.354  0.00  0.00    +0.000 C 
ATOM     26  H   UNL     1     -10.151   0.404  15.224  0.00  0.00    +0.000 HD
ATOM     27  H   UNL     1     -11.530   0.602  16.316  0.00  0.00    +0.000 HD
ATOM     28  H   UNL     1     -11.746   0.757  14.583  0.00  0.00    +0.000 HD
ENDBRANCH   1  25
BRANCH   1  29
ATOM     29  C   UNL     1     -12.496  -1.729  16.370  0.00  0.00    +0.000 C 
ATOM     30  H   UNL     1     -13.250  -0.963  16.571  0.00  0.00    +0.000 HD
ATOM     31  H   UNL     1     -11.961  -1.879  17.316  0.00  0.00    +0.000 HD
ATOM     32  H   UNL     1     -13.015  -2.664  16.131  0.00  0.00    +0.000 HD
ENDBRANCH   1  29
BRANCH   1  33
ATOM     33  C   UNL     1     -10.195  -2.146  15.426  0.00  0.00    +0.000 C 
ATOM     34  H   UNL     1      -9.456  -1.532  15.960  0.00  0.00    +0.000 HD
ATOM     35  H   UNL     1      -9.743  -2.380  14.456  0.00  0.00    +0.000 HD
BRANCH  33  36
ATOM     36  N   UNL     1     -10.349  -3.380  16.201  0.00  0.00    +0.000 N 
ATOM     37  C   UNL     1     -10.639  -4.592  15.635  0.00  0.00    +0.000 C 
ATOM     38  O   UNL     1     -10.934  -4.724  14.450  0.00  0.00    +0.000 OA
ATOM     39  N   UNL     1     -10.681  -5.627  16.522  0.00  0.00    +0.000 N 
ATOM     40  H   UNL     1     -10.045  -3.378  17.170  0.00  0.00    +0.000 HD
ATOM     41  H   UNL     1     -10.344  -5.577  17.479  0.00  0.00    +0.000 HD
BRANCH  39  42
ATOM     42  N   UNL     1     -11.055  -6.925  16.084  0.00  0.00    +0.000 N 
ATOM     43  C   UNL     1     -10.128  -7.938  16.349  0.00  0.00    +0.000 C 
ATOM     44  O   UNL     1      -9.069  -7.655  16.910  0.00  0.00    +0.000 OA
ATOM     45  N   UNL     1     -10.505  -9.162  15.862  0.00  0.00    +0.000 N 
ATOM     46  H   UNL     1     -12.048  -7.139  16.126  0.00  0.00    +0.000 HD
ATOM     47  H   UNL     1     -11.276  -9.177  15.204  0.00  0.00    +0.000 HD
BRANCH  45  48
ATOM     48  C   UNL     1      -9.738 -10.358  15.944  0.00  0.00    +0.000 A 
ATOM     49  C   UNL     1      -9.148 -10.964  14.831  0.00  0.00    +0.000 A 
ATOM     50  C   UNL     1      -8.405 -12.146  14.960  0.00  0.00    +0.000 A 
ATOM     51  C   UNL     1      -8.244 -12.738  16.208  0.00  0.00    +0.000 A 
ATOM     52  C   UNL     1      -8.818 -12.143  17.328  0.00  0.00    +0.000 A 
ATOM     53  C   UNL     1      -9.553 -10.956  17.200  0.00  0.00    +0.000 A 
ATOM     54  H   UNL     1      -9.240 -10.540  13.837  0.00  0.00    +0.000 HD
ATOM     55  H   UNL     1      -7.958 -12.600  14.078  0.00  0.00    +0.000 HD
ATOM     56  H   UNL     1      -7.670 -13.656  16.305  0.00  0.00    +0.000 HD
ATOM     57  H   UNL     1      -8.696 -12.612  18.303  0.00  0.00    +0.000 HD
ATOM     58  H   UNL     1      -9.994 -10.529  18.097  0.00  0.00    +0.000 HD
ENDBRANCH  45  48
ENDBRANCH  39  42
ENDBRANCH  33  36
ENDBRANCH   1  33
TORSDOF 9
ENDMDL
MODEL 9
REMARK VINA RESULT:    -9.136      3.181      4.681
REMARK INTER + INTRA:         -13.276
REMARK INTER:                 -12.614
REMARK INTRA:                  -0.662
REMARK UNBOUND:                -0.401
REMARK  Name = 
REMARK  9 active torsions:
REMARK  status: ('A' for Active; 'I' for Inactive)
REMARK    1  A    between atoms: C_1  and  C_2
REMARK    2  A    between atoms: C_4  and  C_5
REMARK    3  A    between atoms: N_7  and  C_8
REMARK    4  A    between atoms: C_8  and  C_9
REMARK    5  A    between atoms: C_8  and  C_10
REMARK    6  A    between atoms: C_8  and  C_11
REMARK    7  A    between atoms: C_11  and  N_12
REMARK    8  A    between atoms: N_15  and  N_16
REMARK    9  A    between atoms: N_19  and  C_20
REMARK                            x       y       z     vdW  Elec       q    Type
REMARK                         _______ _______ _______ _____ _____    ______ ____
ROOT
ATOM      1  C   UNL     1      -9.246  -1.768  23.959  0.00  0.00    +0.000 C 
ENDROOT
BRANCH   1   6
ATOM      2  C   UNL     1     -10.074   2.078  23.285  0.00  0.00    +0.000 C 
ATOM      3  C   UNL     1      -9.977   2.531  24.737  0.00  0.00    +0.000 C 
ATOM      4  C   UNL     1      -8.756   1.902  25.404  0.00  0.00    +0.000 C 
ATOM      5  C   UNL     1      -8.906   0.379  25.393  0.00  0.00    +0.000 C 
ATOM      6  N   UNL     1      -9.095  -0.187  23.985  0.00  0.00    +0.000 N 
ATOM      7  C   UNL     1     -10.191   0.552  23.204  0.00  0.00    +0.000 C 
ATOM      8  H   UNL     1      -9.177   2.392  22.740  0.00  0.00    +0.000 HD
ATOM      9  H   UNL     1     -10.884   2.231  25.281  0.00  0.00    +0.000 HD
ATOM     10  H   UNL     1      -9.925   3.624  24.804  0.00  0.00    +0.000 HD
ATOM     11  H   UNL     1      -8.748   2.226  26.453  0.00  0.00    +0.000 HD
ATOM     12  H   UNL     1      -9.784   0.096  25.978  0.00  0.00    +0.000 HD
ATOM     13  H   UNL     1      -8.040  -0.091  25.850  0.00  0.00    +0.000 HD
ATOM     14  H   UNL     1      -8.201  -0.007  23.503  0.00  0.00    +0.000 HD
ATOM     15  H   UNL     1     -11.155   0.222  23.601  0.00  0.00    +0.000 HD
ATOM     16  H   UNL     1     -10.100   0.255  22.156  0.00  0.00    +0.000 HD
BRANCH   2  17
ATOM     17  C   UNL     1     -11.254   2.767  22.596  0.00  0.00    +0.000 C 
ATOM     18  H   UNL     1     -11.002   3.019  21.560  0.00  0.00    +0.000 HD
ATOM     19  H   UNL     1     -11.538   3.693  23.108  0.00  0.00    +0.000 HD
ATOM     20  H   UNL     1     -12.128   2.107  22.572  0.00  0.00    +0.000 HD
ENDBRANCH   2  17
BRANCH   4  21
ATOM     21  C   UNL     1      -7.450   2.397  24.776  0.00  0.00    +0.000 C 
ATOM     22  H   UNL     1      -7.273   3.464  24.943  0.00  0.00    +0.000 HD
ATOM     23  H   UNL     1      -7.455   2.232  23.695  0.00  0.00    +0.000 HD
ATOM     24  H   UNL     1      -6.594   1.850  25.187  0.00  0.00    +0.000 HD
ENDBRANCH   4  21
ENDBRANCH   1   6
BRANCH   1  25
ATOM     25  C   UNL     1      -9.051  -2.333  25.380  0.00  0.00    +0.000 C 
ATOM     26  H   UNL     1      -9.820  -1.983  26.076  0.00  0.00    +0.000 HD
ATOM     27  H   UNL     1      -8.074  -2.072  25.797  0.00  0.00    +0.000 HD
ATOM     28  H   UNL     1      -9.104  -3.428  25.380  0.00  0.00    +0.000 HD
ENDBRANCH   1  25
BRANCH   1  29
ATOM     29  C   UNL     1     -10.663  -2.119  23.458  0.00  0.00    +0.000 C 
ATOM     30  H   UNL     1     -10.797  -3.192  23.297  0.00  0.00    +0.000 HD
ATOM     31  H   UNL     1     -10.868  -1.643  22.490  0.00  0.00    +0.000 HD
ATOM     32  H   UNL     1     -11.433  -1.781  24.161  0.00  0.00    +0.000 HD
ENDBRANCH   1  29
BRANCH   1  33
ATOM     33  C   UNL     1      -8.208  -2.435  22.978  0.00  0.00    +0.000 C 
ATOM     34  H   UNL     1      -7.729  -3.287  23.482  0.00  0.00    +0.000 HD
ATOM     35  H   UNL     1      -7.397  -1.739  22.734  0.00  0.00    +0.000 HD
BRANCH  33  36
ATOM     36  N   UNL     1      -8.790  -2.957  21.739  0.00  0.00    +0.000 N 
ATOM     37  C   UNL     1      -8.128  -3.813  20.901  0.00  0.00    +0.000 C 
ATOM     38  O   UNL     1      -6.943  -4.105  21.041  0.00  0.00    +0.000 OA
ATOM     39  N   UNL     1      -8.865  -4.229  19.831  0.00  0.00    +0.000 N 
ATOM     40  H   UNL     1      -9.786  -2.832  21.588  0.00  0.00    +0.000 HD
ATOM     41  H   UNL     1      -9.869  -4.096  19.739  0.00  0.00    +0.000 HD
BRANCH  39  42
ATOM     42  N   UNL     1      -8.275  -5.051  18.836  0.00  0.00    +0.000 N 
ATOM     43  C   UNL     1      -8.976  -6.221  18.530  0.00  0.00    +0.000 C 
ATOM     44  O   UNL     1     -10.021  -6.473  19.133  0.00  0.00    +0.000 OA
ATOM     45  N   UNL     1      -8.344  -7.010  17.605  0.00  0.00    +0.000 N 
ATOM     46  H   UNL     1      -7.778  -4.564  18.095  0.00  0.00    +0.000 HD
ATOM     47  H   UNL     1      -7.376  -6.789  17.399  0.00  0.00    +0.000 HD
BRANCH  45  48
ATOM     48  C   UNL     1      -8.803  -8.275  17.142  0.00  0.00    +0.000 A 
ATOM     49  C   UNL     1      -8.889  -9.402  17.964  0.00  0.00    +0.000 A 
ATOM     50  C   UNL     1      -9.342 -10.631  17.463  0.00  0.00    +0.000 A 
ATOM     51  C   UNL     1      -9.718 -10.745  16.129  0.00  0.00    +0.000 A 
ATOM     52  C   UNL     1      -9.647  -9.630  15.298  0.00  0.00    +0.000 A 
ATOM     53  C   UNL     1      -9.202  -8.399  15.802  0.00  0.00    +0.000 A 
ATOM     54  H   UNL     1      -8.613  -9.364  19.013  0.00  0.00    +0.000 HD
ATOM     55  H   UNL     1      -9.397 -11.494  18.122  0.00  0.00    +0.000 HD
ATOM     56  H   UNL     1     -10.066 -11.699  15.741  0.00  0.00    +0.000 HD
ATOM     57  H   UNL     1      -9.934  -9.724  14.253  0.00  0.00    +0.000 HD
ATOM     58  H   UNL     1      -9.151  -7.555  15.120  0.00  0.00    +0.000 HD
ENDBRANCH  45  48
ENDBRANCH  39  42
ENDBRANCH  33  36
ENDBRANCH   1  33
TORSDOF 9
ENDMDL
