REMARK  Name = 
REMARK  11 active torsions:
REMARK  status: ('A' for Active; 'I' for Inactive)
REMARK    1  A    between atoms: C_1  and  C_2
REMARK    2  A    between atoms: C_2  and  C_3
REMARK    3  A    between atoms: C_2  and  N_4
REMARK    4  A    between atoms: N_4  and  C_5
REMARK    5  A    between atoms: C_9  and  C_10
REMARK    6  A    between atoms: C_10  and  N_11
REMARK    7  A    between atoms: N_14  and  N_15
REMARK    8  A    between atoms: C_16  and  C_18
REMARK    9  A    between atoms: C_18  and  C_19
REMARK   10  A    between atoms: C_18  and  C_20
REMARK   11  A    between atoms: C_18  and  C_21
REMARK                            x       y       z     vdW  Elec       q    Type
REMARK                         _______ _______ _______ _____ _____    ______ ____
ROOT
ATOM      1  C   UNL     1      -1.119  -2.889   1.017  0.00  0.00    +0.000 C 
ATOM      2  H   UNL     1      -1.158  -3.935   1.340  0.00  0.00    +0.000 HD
ATOM      3  H   UNL     1      -1.766  -2.314   1.690  0.00  0.00    +0.000 HD
ENDROOT
BRANCH   1   8
ATOM      4  C   UNL     1      -2.420  -1.358  -2.220  0.00  0.00    +0.000 A 
ATOM      5  C   UNL     1      -2.209  -2.405  -3.122  0.00  0.00    +0.000 A 
ATOM      6  C   UNL     1      -1.745  -3.642  -2.665  0.00  0.00    +0.000 A 
ATOM      7  C   UNL     1      -1.447  -3.820  -1.312  0.00  0.00    +0.000 A 
ATOM      8  C   UNL     1      -1.599  -2.757  -0.412  0.00  0.00    +0.000 A 
ATOM      9  C   UNL     1      -2.108  -1.528  -0.871  0.00  0.00    +0.000 A 
ATOM     10  H   UNL     1      -2.365  -2.286  -4.187  0.00  0.00    +0.000 HD
ATOM     11  H   UNL     1      -1.587  -4.464  -3.364  0.00  0.00    +0.000 HD
ATOM     12  H   UNL     1      -1.071  -4.785  -0.974  0.00  0.00    +0.000 HD
ATOM     13  H   UNL     1      -2.209  -0.718  -0.156  0.00  0.00    +0.000 HD
BRANCH   4  14
ATOM     14  N   UNL     1      -2.804  -0.053  -2.767  0.00  0.00    +0.000 NA
ATOM     15  H   UNL     1      -1.921   0.458  -2.909  0.00  0.00    +0.000 HD
ATOM     16  H   UNL     1      -3.199  -0.206  -3.703  0.00  0.00    +0.000 HD
BRANCH  14  17
ATOM     17  C   UNL     1      -3.752   0.804  -1.976  0.00  0.00    +0.000 C 
ATOM     18  H   UNL     1      -3.292   1.020  -1.007  0.00  0.00    +0.000 HD
BRANCH  17  19
ATOM     19  C   UNL     1      -3.910   2.115  -2.746  0.00  0.00    +0.000 C 
ATOM     20  H   UNL     1      -4.605   2.786  -2.228  0.00  0.00    +0.000 HD
ATOM     21  H   UNL     1      -4.299   1.945  -3.755  0.00  0.00    +0.000 HD
ATOM     22  H   UNL     1      -2.951   2.637  -2.834  0.00  0.00    +0.000 HD
ENDBRANCH  17  19
BRANCH  17  23
ATOM     23  C   UNL     1      -5.108   0.132  -1.805  0.00  0.00    +0.000 C 
ATOM     24  H   UNL     1      -5.469  -0.311  -2.739  0.00  0.00    +0.000 HD
ATOM     25  H   UNL     1      -5.856   0.857  -1.468  0.00  0.00    +0.000 HD
ATOM     26  H   UNL     1      -5.066  -0.659  -1.045  0.00  0.00    +0.000 HD
ENDBRANCH  17  23
ENDBRANCH  14  17
ENDBRANCH   4  14
ENDBRANCH   1   8
BRANCH   1  27
ATOM     27  N   UNL     1       0.253  -2.443   1.142  0.00  0.00    +0.000 N 
ATOM     28  C   UNL     1       0.568  -1.144   1.450  0.00  0.00    +0.000 C 
ATOM     29  O   UNL     1      -0.263  -0.254   1.606  0.00  0.00    +0.000 OA
ATOM     30  N   UNL     1       1.929  -0.935   1.519  0.00  0.00    +0.000 N 
ATOM     31  H   UNL     1       0.967  -2.982   0.674  0.00  0.00    +0.000 HD
ATOM     32  H   UNL     1       2.556  -1.696   1.769  0.00  0.00    +0.000 HD
BRANCH  30  33
ATOM     33  N   UNL     1       2.384   0.345   1.883  0.00  0.00    +0.000 N 
ATOM     34  C   UNL     1       3.751   0.562   1.953  0.00  0.00    +0.000 C 
ATOM     35  O   UNL     1       4.545  -0.363   1.777  0.00  0.00    +0.000 OA
ATOM     36  H   UNL     1       1.680   1.055   2.054  0.00  0.00    +0.000 HD
BRANCH  34  37
ATOM     37  C   UNL     1       4.184   2.013   2.237  0.00  0.00    +0.000 C 
BRANCH  37  38
ATOM     38  C   UNL     1       3.623   2.486   3.585  0.00  0.00    +0.000 C 
ATOM     39  H   UNL     1       3.976   1.850   4.405  0.00  0.00    +0.000 HD
ATOM     40  H   UNL     1       2.528   2.464   3.603  0.00  0.00    +0.000 HD
ATOM     41  H   UNL     1       3.932   3.516   3.801  0.00  0.00    +0.000 HD
ENDBRANCH  37  38
BRANCH  37  42
ATOM     42  C   UNL     1       5.721   2.092   2.282  0.00  0.00    +0.000 C 
ATOM     43  H   UNL     1       6.128   1.458   3.077  0.00  0.00    +0.000 HD
ATOM     44  H   UNL     1       6.062   3.119   2.464  0.00  0.00    +0.000 HD
ATOM     45  H   UNL     1       6.164   1.757   1.337  0.00  0.00    +0.000 HD
ENDBRANCH  37  42
BRANCH  37  46
ATOM     46  C   UNL     1       3.682   2.937   1.118  0.00  0.00    +0.000 C 
ATOM     47  H   UNL     1       2.589   2.941   1.049  0.00  0.00    +0.000 HD
ATOM     48  H   UNL     1       4.071   2.623   0.143  0.00  0.00    +0.000 HD
ATOM     49  H   UNL     1       4.003   3.972   1.288  0.00  0.00    +0.000 HD
ENDBRANCH  37  46
ENDBRANCH  34  37
ENDBRANCH  30  33
ENDBRANCH   1  27
TORSDOF 11
