
 OpenBabel01112423043D

 55 59  0  0  1  0  0  0  0  0999 V2000
    2.0853    8.3534    3.9235 N   0  0  0  0  0  0  0  0  0  0  0  0
    1.8314    7.2703    4.8106 C   0  0  0  0  0  0  0  0  0  0  0  0
    1.6948    5.9600    4.2960 C   0  0  0  0  0  0  0  0  0  0  0  0
    1.7299    5.8013    2.8985 N   0  0  0  0  0  0  0  0  0  0  0  0
    0.9368    4.6956    2.3390 C   0  0  0  0  0  0  0  0  0  0  0  0
   -0.5088    5.1741    2.0586 C   0  0  1  0  0  0  0  0  0  0  0  0
   -1.3492    4.1496    1.3078 C   0  0  0  0  0  0  0  0  0  0  0  0
   -2.0414    3.4006    2.4173 C   0  0  0  0  0  0  0  0  0  0  0  0
   -2.2677    4.4853    3.4449 C   0  0  0  0  0  0  0  0  0  0  0  0
   -1.1965    5.4268    3.3061 O   0  0  0  0  0  0  0  0  0  0  0  0
    1.5599    4.8875    5.0870 N   0  0  0  0  0  0  0  0  0  0  0  0
    1.5665    5.1309    6.3972 C   0  0  0  0  0  0  0  0  0  0  0  0
    1.7073    6.3318    6.9550 N   0  3  0  0  0  0  0  0  0  0  0  0
    1.8360    7.4389    6.2151 C   0  0  0  0  0  0  0  0  0  0  0  0
    1.8469    8.7072    6.7966 N   0  0  0  0  0  0  0  0  0  0  0  0
    1.3621    9.0336    8.1497 C   0  0  3  0  0  0  0  0  0  0  0  0
    2.3799    8.5938    9.2308 C   0  0  0  0  0  0  0  0  0  0  0  0
    1.8063    8.8385   10.6356 C   0  0  3  0  0  0  0  0  0  0  0  0
    1.5947   10.3475   10.8307 C   0  0  0  0  0  0  0  0  0  0  0  0
    0.6318   10.8813    9.7558 C   0  0  3  0  0  0  0  0  0  0  0  0
   -0.7249   10.1841    9.9568 C   0  0  0  0  0  0  0  0  0  0  0  0
   -0.5618    8.6722    9.7677 C   0  0  3  0  0  0  0  0  0  0  0  0
    0.4593    8.1077   10.7719 C   0  0  0  0  0  0  0  0  0  0  0  0
   -0.0502    8.4211    8.3514 C   0  0  0  0  0  0  0  0  0  0  0  0
    1.1897   10.5704    8.3379 C   0  0  0  0  0  0  0  0  0  0  0  0
    1.7793    8.0779    2.9819 H   0  0  0  0  0  0  0  0  0  0  0  0
    1.6268    9.2144    4.2119 H   0  0  0  0  0  0  0  0  0  0  0  0
    2.7013    5.7965    2.5936 H   0  0  0  0  0  0  0  0  0  0  0  0
    0.9482    3.8055    2.9796 H   0  0  0  0  0  0  0  0  0  0  0  0
    1.4000    4.4085    1.3873 H   0  0  0  0  0  0  0  0  0  0  0  0
   -0.4702    6.1141    1.4949 H   0  0  0  0  0  0  0  0  0  0  0  0
   -0.7758    3.5042    0.6364 H   0  0  0  0  0  0  0  0  0  0  0  0
   -2.1032    4.6703    0.7037 H   0  0  0  0  0  0  0  0  0  0  0  0
   -1.3738    2.6316    2.8216 H   0  0  0  0  0  0  0  0  0  0  0  0
   -2.9703    2.9155    2.1050 H   0  0  0  0  0  0  0  0  0  0  0  0
   -2.2759    4.0965    4.4668 H   0  0  0  0  0  0  0  0  0  0  0  0
   -3.2080    5.0169    3.2657 H   0  0  0  0  0  0  0  0  0  0  0  0
    1.4504    4.2896    7.0761 H   0  0  0  0  0  0  0  0  0  0  0  0
    1.7051    6.3954    7.9612 H   0  0  0  0  0  0  0  0  0  0  0  0
    2.5420    9.3384    6.3891 H   0  0  0  0  0  0  0  0  0  0  0  0
    3.3160    9.1593    9.1134 H   0  0  0  0  0  0  0  0  0  0  0  0
    2.6687    7.5447    9.1406 H   0  0  0  0  0  0  0  0  0  0  0  0
    2.5069    8.4633   11.3901 H   0  0  0  0  0  0  0  0  0  0  0  0
    2.5535   10.8762   10.7752 H   0  0  0  0  0  0  0  0  0  0  0  0
    1.1858   10.5372   11.8321 H   0  0  0  0  0  0  0  0  0  0  0  0
    0.5070   11.9629    9.8786 H   0  0  0  0  0  0  0  0  0  0  0  0
   -1.4587   10.5768    9.2425 H   0  0  0  0  0  0  0  0  0  0  0  0
   -1.1168   10.3897   10.9606 H   0  0  0  0  0  0  0  0  0  0  0  0
   -1.5281    8.1728    9.8999 H   0  0  0  0  0  0  0  0  0  0  0  0
    0.6010    7.0332   10.5928 H   0  0  0  0  0  0  0  0  0  0  0  0
    0.0742    8.2140   11.7903 H   0  0  0  0  0  0  0  0  0  0  0  0
   -0.7448    8.8550    7.6176 H   0  0  0  0  0  0  0  0  0  0  0  0
   -0.0799    7.3449    8.1739 H   0  0  0  0  0  0  0  0  0  0  0  0
    2.1498   11.0866    8.2030 H   0  0  0  0  0  0  0  0  0  0  0  0
    0.5122   10.9783    7.5768 H   0  0  0  0  0  0  0  0  0  0  0  0
  1  2  1  0  0  0  0
  1 26  1  0  0  0  0
  1 27  1  0  0  0  0
  2  3  1  0  0  0  0
  2 14  2  0  0  0  0
  3  4  1  0  0  0  0
  3 11  2  0  0  0  0
  4  5  1  0  0  0  0
  4 28  1  0  0  0  0
  5 29  1  0  0  0  0
  5 30  1  0  0  0  0
  6  7  1  0  0  0  0
  6 10  1  0  0  0  0
  6  5  1  0  0  0  0
  6 31  1  6  0  0  0
  7  8  1  0  0  0  0
  7 32  1  0  0  0  0
  7 33  1  0  0  0  0
  8  9  1  0  0  0  0
  8 34  1  0  0  0  0
  8 35  1  0  0  0  0
  9 10  1  0  0  0  0
  9 36  1  0  0  0  0
  9 37  1  0  0  0  0
 11 12  1  0  0  0  0
 12 13  2  0  0  0  0
 12 38  1  0  0  0  0
 13 14  1  0  0  0  0
 13 39  1  0  0  0  0
 14 15  1  0  0  0  0
 15 16  1  0  0  0  0
 15 40  1  0  0  0  0
 16 17  1  0  0  0  0
 16 24  1  0  0  0  0
 16 25  1  0  0  0  0
 17 18  1  0  0  0  0
 17 41  1  0  0  0  0
 17 42  1  0  0  0  0
 18 19  1  0  0  0  0
 18 23  1  0  0  0  0
 18 43  1  0  0  0  0
 19 20  1  0  0  0  0
 19 44  1  0  0  0  0
 19 45  1  0  0  0  0
 20 21  1  0  0  0  0
 20 25  1  0  0  0  0
 20 46  1  0  0  0  0
 21 22  1  0  0  0  0
 21 47  1  0  0  0  0
 21 48  1  0  0  0  0
 22 23  1  0  0  0  0
 22 24  1  0  0  0  0
 22 49  1  0  0  0  0
 23 50  1  0  0  0  0
 23 51  1  0  0  0  0
 24 52  1  0  0  0  0
 24 53  1  0  0  0  0
 25 54  1  0  0  0  0
 25 55  1  0  0  0  0
M  CHG  1  13   1
M  END
$$$$
