
 OpenBabel01112423063D

 45 47  0  0  1  0  0  0  0  0999 V2000
   -2.3653    5.1040   -4.3597 C   0  0  0  0  0  0  0  0  0  0  0  0
   -1.6112    4.2161   -3.4329 C   0  0  0  0  0  0  0  0  0  0  0  0
   -2.2953    3.6022   -2.3937 N   0  0  0  0  0  0  0  0  0  0  0  0
   -1.4595    2.9074   -1.6425 C   0  0  0  0  0  0  0  0  0  0  0  0
   -1.8641    2.2280   -0.5435 N   0  0  0  0  0  0  0  0  0  0  0  0
   -3.2228    2.0312   -0.2519 C   0  0  0  0  0  0  0  0  0  0  0  0
   -4.1390    2.5049   -1.1069 N   0  3  0  0  0  0  0  0  0  0  0  0
   -5.4317    2.3542   -0.8772 C   0  0  0  0  0  0  0  0  0  0  0  0
   -5.9400    1.8002    0.2299 N   0  0  0  0  0  0  0  0  0  0  0  0
   -5.0604    1.3643    1.1515 C   0  0  0  0  0  0  0  0  0  0  0  0
   -5.5419    0.9202    2.3854 N   0  0  0  0  0  0  0  0  0  0  0  0
   -6.9346    1.2368    2.7533 C   0  0  1  0  0  0  0  0  0  0  0  0
   -7.8008   -0.0263    2.7621 C   0  0  0  0  0  0  0  0  0  0  0  0
   -6.9773    1.8981    4.1231 C   0  0  0  0  0  0  0  0  0  0  0  0
   -7.9982    2.8198    4.4132 C   0  0  0  0  0  0  0  0  0  0  0  0
   -8.0950    3.4072    5.6759 C   0  0  0  0  0  0  0  0  0  0  0  0
   -7.1712    3.0835    6.6659 C   0  0  0  0  0  0  0  0  0  0  0  0
   -6.1530    2.1725    6.3958 C   0  0  0  0  0  0  0  0  0  0  0  0
   -6.0592    1.5798    5.1357 C   0  0  0  0  0  0  0  0  0  0  0  0
   -3.6596    1.4501    0.9570 C   0  0  0  0  0  0  0  0  0  0  0  0
   -2.7408    0.8341    1.8431 N   0  0  0  0  0  0  0  0  0  0  0  0
    0.1613    2.8834   -2.1884 S   0  0  0  0  0  0  0  0  0  0  0  0
   -0.2642    3.9108   -3.4923 C   0  0  0  0  0  0  0  0  0  0  0  0
    0.7537    4.3536   -4.4895 C   0  0  0  0  0  0  0  0  0  0  0  0
   -3.4022    5.2192   -4.0273 H   0  0  0  0  0  0  0  0  0  0  0  0
   -2.3753    4.6836   -5.3694 H   0  0  0  0  0  0  0  0  0  0  0  0
   -1.9108    6.0994   -4.3950 H   0  0  0  0  0  0  0  0  0  0  0  0
   -1.2441    1.5245   -0.1521 H   0  0  0  0  0  0  0  0  0  0  0  0
   -3.7973    2.9999   -1.9365 H   0  0  0  0  0  0  0  0  0  0  0  0
   -6.1214    2.7125   -1.6341 H   0  0  0  0  0  0  0  0  0  0  0  0
   -5.2607   -0.0295    2.6033 H   0  0  0  0  0  0  0  0  0  0  0  0
   -7.3803    1.9462    2.0466 H   0  0  0  0  0  0  0  0  0  0  0  0
   -7.4818   -0.7320    3.5376 H   0  0  0  0  0  0  0  0  0  0  0  0
   -7.7603   -0.5421    1.7971 H   0  0  0  0  0  0  0  0  0  0  0  0
   -8.8496    0.2268    2.9629 H   0  0  0  0  0  0  0  0  0  0  0  0
   -8.7399    3.0825    3.6596 H   0  0  0  0  0  0  0  0  0  0  0  0
   -8.8969    4.1097    5.8927 H   0  0  0  0  0  0  0  0  0  0  0  0
   -7.2497    3.5341    7.6519 H   0  0  0  0  0  0  0  0  0  0  0  0
   -5.4374    1.9154    7.1725 H   0  0  0  0  0  0  0  0  0  0  0  0
   -5.2654    0.8599    4.9592 H   0  0  0  0  0  0  0  0  0  0  0  0
   -3.1673    0.6347    2.7496 H   0  0  0  0  0  0  0  0  0  0  0  0
   -1.8734    1.3507    1.9774 H   0  0  0  0  0  0  0  0  0  0  0  0
    1.7651    4.0280   -4.2267 H   0  0  0  0  0  0  0  0  0  0  0  0
    0.7613    5.4460   -4.5644 H   0  0  0  0  0  0  0  0  0  0  0  0
    0.5124    3.9448   -5.4766 H   0  0  0  0  0  0  0  0  0  0  0  0
  1  2  1  0  0  0  0
  1 25  1  0  0  0  0
  1 26  1  0  0  0  0
  1 27  1  0  0  0  0
  2  3  1  0  0  0  0
  2 23  2  0  0  0  0
  3  4  2  0  0  0  0
  4  5  1  0  0  0  0
  4 22  1  0  0  0  0
  5  6  1  0  0  0  0
  5 28  1  0  0  0  0
  6  7  1  0  0  0  0
  6 20  2  0  0  0  0
  7  8  2  0  0  0  0
  7 29  1  0  0  0  0
  8  9  1  0  0  0  0
  8 30  1  0  0  0  0
  9 10  2  0  0  0  0
 10 11  1  0  0  0  0
 10 20  1  0  0  0  0
 11 12  1  0  0  0  0
 11 31  1  0  0  0  0
 12 13  1  0  0  0  0
 12 14  1  0  0  0  0
 12 32  1  6  0  0  0
 13 33  1  0  0  0  0
 13 34  1  0  0  0  0
 13 35  1  0  0  0  0
 14 15  1  0  0  0  0
 14 19  2  0  0  0  0
 15 16  2  0  0  0  0
 15 36  1  0  0  0  0
 16 17  1  0  0  0  0
 16 37  1  0  0  0  0
 17 18  2  0  0  0  0
 17 38  1  0  0  0  0
 18 19  1  0  0  0  0
 18 39  1  0  0  0  0
 19 40  1  0  0  0  0
 20 21  1  0  0  0  0
 21 41  1  0  0  0  0
 21 42  1  0  0  0  0
 22 23  1  0  0  0  0
 23 24  1  0  0  0  0
 24 43  1  0  0  0  0
 24 44  1  0  0  0  0
 24 45  1  0  0  0  0
M  CHG  1   7   1
M  END
$$$$
