
 OpenBabel01112423083D

 53 54  0  0  1  0  0  0  0  0999 V2000
    0.8250   -0.2220   -2.4861 C   0  0  0  0  0  0  0  0  0  0  0  0
    2.3344   -0.2720   -2.4222 N   0  3  0  0  0  0  0  0  0  0  0  0
    2.7967   -1.0312   -3.6516 C   0  0  0  0  0  0  0  0  0  0  0  0
    2.9369   -0.8314   -1.0764 C   0  0  2  0  0  0  0  0  0  0  0  0
    2.4611    0.0079    0.1584 C   0  0  0  0  0  0  0  0  0  0  0  0
    1.0197   -0.0016    0.3967 N   0  0  0  0  0  0  0  0  0  0  0  0
    0.4832   -0.7701    1.4098 C   0  0  0  0  0  0  0  0  0  0  0  0
    1.1788   -1.4594    2.1410 O   0  0  0  0  0  0  0  0  0  0  0  0
   -0.8891   -0.6560    1.4450 N   0  0  0  0  0  0  0  0  0  0  0  0
   -1.7226   -1.1874    2.4564 C   0  0  0  0  0  0  0  0  0  0  0  0
   -1.2569   -1.4472    3.7476 C   0  0  0  0  0  0  0  0  0  0  0  0
   -2.1078   -1.9905    4.7205 C   0  0  0  0  0  0  0  0  0  0  0  0
   -1.6524   -2.2904    6.1070 C   0  0  0  0  0  0  0  0  0  0  0  0
   -0.3523   -2.0311    6.4424 N   0  0  0  0  0  0  0  0  0  0  0  0
   -2.4200   -2.7628    6.9318 O   0  0  0  0  0  0  0  0  0  0  0  0
   -3.4472   -2.2523    4.3846 C   0  0  0  0  0  0  0  0  0  0  0  0
   -3.9293   -1.9708    3.1037 C   0  0  0  0  0  0  0  0  0  0  0  0
   -3.0682   -1.4330    2.1547 C   0  0  0  0  0  0  0  0  0  0  0  0
   -3.5259   -1.1711    0.9189 F   0  0  0  0  0  0  0  0  0  0  0  0
    4.5059   -0.8673   -1.1845 C   0  0  0  0  0  0  0  0  0  0  0  0
    5.1787   -1.5990   -0.0052 C   0  0  0  0  0  0  0  0  0  0  0  0
    6.6862   -1.7315   -0.2422 C   0  0  0  0  0  0  0  0  0  0  0  0
    7.3345   -0.3605   -0.4009 C   0  0  0  0  0  0  0  0  0  0  0  0
    6.6807    0.4336   -1.5267 C   0  0  0  0  0  0  0  0  0  0  0  0
    5.1598    0.5200   -1.3712 C   0  0  0  0  0  0  0  0  0  0  0  0
    0.5399    0.1403   -3.4790 H   0  0  0  0  0  0  0  0  0  0  0  0
    0.4518    0.5111   -1.7762 H   0  0  0  0  0  0  0  0  0  0  0  0
    0.4288   -1.2255   -2.3125 H   0  0  0  0  0  0  0  0  0  0  0  0
    2.6613    0.6963   -2.5219 H   0  0  0  0  0  0  0  0  0  0  0  0
    2.4981   -2.0772   -3.5424 H   0  0  0  0  0  0  0  0  0  0  0  0
    3.8743   -0.9217   -3.7658 H   0  0  0  0  0  0  0  0  0  0  0  0
    2.3219   -0.5804   -4.5282 H   0  0  0  0  0  0  0  0  0  0  0  0
    2.5513   -1.8558   -0.9986 H   0  0  0  0  0  0  0  0  0  0  0  0
    2.9608   -0.3606    1.0595 H   0  0  0  0  0  0  0  0  0  0  0  0
    2.7458    1.0570    0.0389 H   0  0  0  0  0  0  0  0  0  0  0  0
    0.5538    0.8970    0.3423 H   0  0  0  0  0  0  0  0  0  0  0  0
   -1.3579   -0.4529    0.5707 H   0  0  0  0  0  0  0  0  0  0  0  0
   -0.2330   -1.2028    3.9974 H   0  0  0  0  0  0  0  0  0  0  0  0
    0.3687   -1.6980    5.8226 H   0  0  0  0  0  0  0  0  0  0  0  0
   -0.0759   -2.2688    7.3867 H   0  0  0  0  0  0  0  0  0  0  0  0
   -4.1229   -2.6783    5.1279 H   0  0  0  0  0  0  0  0  0  0  0  0
   -4.9650   -2.1754    2.8462 H   0  0  0  0  0  0  0  0  0  0  0  0
    4.7661   -1.4750   -2.0583 H   0  0  0  0  0  0  0  0  0  0  0  0
    4.7437   -2.5975    0.1142 H   0  0  0  0  0  0  0  0  0  0  0  0
    5.0210   -1.0576    0.9339 H   0  0  0  0  0  0  0  0  0  0  0  0
    6.8683   -2.3284   -1.1452 H   0  0  0  0  0  0  0  0  0  0  0  0
    7.1512   -2.2670    0.5926 H   0  0  0  0  0  0  0  0  0  0  0  0
    8.4058   -0.4754   -0.6032 H   0  0  0  0  0  0  0  0  0  0  0  0
    7.2460    0.1962    0.5402 H   0  0  0  0  0  0  0  0  0  0  0  0
    6.9214   -0.0353   -2.4888 H   0  0  0  0  0  0  0  0  0  0  0  0
    7.1044    1.4447   -1.5539 H   0  0  0  0  0  0  0  0  0  0  0  0
    4.7571    1.0231   -2.2563 H   0  0  0  0  0  0  0  0  0  0  0  0
    4.9385    1.1607   -0.5101 H   0  0  0  0  0  0  0  0  0  0  0  0
  1  2  1  0  0  0  0
  1 26  1  0  0  0  0
  1 27  1  0  0  0  0
  1 28  1  0  0  0  0
  2  3  1  0  0  0  0
  2 29  1  0  0  0  0
  3 30  1  0  0  0  0
  3 31  1  0  0  0  0
  3 32  1  0  0  0  0
  4 20  1  0  0  0  0
  4  5  1  0  0  0  0
  4  2  1  0  0  0  0
  4 33  1  1  0  0  0
  5  6  1  0  0  0  0
  5 34  1  0  0  0  0
  5 35  1  0  0  0  0
  6  7  1  0  0  0  0
  6 36  1  0  0  0  0
  7  8  2  0  0  0  0
  7  9  1  0  0  0  0
  9 10  1  0  0  0  0
  9 37  1  0  0  0  0
 10 11  1  0  0  0  0
 10 18  2  0  0  0  0
 11 12  2  0  0  0  0
 11 38  1  0  0  0  0
 12 13  1  0  0  0  0
 12 16  1  0  0  0  0
 13 14  1  0  0  0  0
 13 15  2  0  0  0  0
 14 39  1  0  0  0  0
 14 40  1  0  0  0  0
 16 17  2  0  0  0  0
 16 41  1  0  0  0  0
 17 18  1  0  0  0  0
 17 42  1  0  0  0  0
 18 19  1  0  0  0  0
 20 21  1  0  0  0  0
 20 25  1  0  0  0  0
 20 43  1  0  0  0  0
 21 22  1  0  0  0  0
 21 44  1  0  0  0  0
 21 45  1  0  0  0  0
 22 23  1  0  0  0  0
 22 46  1  0  0  0  0
 22 47  1  0  0  0  0
 23 24  1  0  0  0  0
 23 48  1  0  0  0  0
 23 49  1  0  0  0  0
 24 25  1  0  0  0  0
 24 50  1  0  0  0  0
 24 51  1  0  0  0  0
 25 52  1  0  0  0  0
 25 53  1  0  0  0  0
M  CHG  1   2   1
M  END
$$$$
