REMARK  Name = 
REMARK  4 active torsions:
REMARK  status: ('A' for Active; 'I' for Inactive)
REMARK    1  A    between atoms: S_2  and  N_4
REMARK    2  A    between atoms: S_2  and  C_19
REMARK    3  A    between atoms: N_4  and  C_5
REMARK    4  A    between atoms: C_10  and  C_11
REMARK                            x       y       z     vdW  Elec       q    Type
REMARK                         _______ _______ _______ _____ _____    ______ ____
ROOT
ATOM      1  C   UNL     1      -1.511   1.000   2.048  0.00  0.00    +0.000 A 
ATOM      2  C   UNL     1      -2.824   0.651   1.728  0.00  0.00    +0.000 A 
ATOM      3  C   UNL     1      -3.208   0.468   0.390  0.00  0.00    +0.000 A 
ATOM      4  C   UNL     1      -2.246   0.641  -0.616  0.00  0.00    +0.000 A 
ATOM      5  N   UNL     1      -2.356   0.500  -1.978  0.00  0.00    +0.000 NA
ATOM      6  C   UNL     1      -1.159   0.772  -2.464  0.00  0.00    +0.000 A 
ATOM      7  N   UNL     1      -0.291   1.109  -1.455  0.00  0.00    +0.000 N 
ATOM      8  C   UNL     1      -0.953   1.011  -0.261  0.00  0.00    +0.000 A 
ATOM      9  C   UNL     1      -0.546   1.213   1.058  0.00  0.00    +0.000 A 
ATOM     10  H   UNL     1      -3.564   0.510   2.513  0.00  0.00    +0.000 HD
ATOM     11  H   UNL     1      -4.223   0.189   0.130  0.00  0.00    +0.000 HD
ATOM     12  H   UNL     1       0.676   1.365  -1.603  0.00  0.00    +0.000 HD
ATOM     13  H   UNL     1       0.465   1.514   1.302  0.00  0.00    +0.000 HD
ENDROOT
BRANCH   6  14
ATOM     14  C   UNL     1      -0.733   0.743  -3.891  0.00  0.00    +0.000 C 
ATOM     15  C   UNL     1      -0.873  -0.628  -4.526  0.00  0.00    +0.000 C 
ATOM     16  C   UNL     1       0.205  -0.599  -5.579  0.00  0.00    +0.000 C 
ATOM     17  C   UNL     1       1.301   0.195  -4.901  0.00  0.00    +0.000 C 
ATOM     18  O   UNL     1       0.673   1.075  -3.957  0.00  0.00    +0.000 OA
ATOM     19  H   UNL     1      -1.276   1.504  -4.463  0.00  0.00    +0.000 HD
ATOM     20  H   UNL     1      -1.872  -0.803  -4.937  0.00  0.00    +0.000 HD
ATOM     21  H   UNL     1      -0.661  -1.428  -3.806  0.00  0.00    +0.000 HD
ATOM     22  H   UNL     1      -0.153  -0.062  -6.465  0.00  0.00    +0.000 HD
ATOM     23  H   UNL     1       0.535  -1.592  -5.895  0.00  0.00    +0.000 HD
ATOM     24  H   UNL     1       1.887   0.783  -5.614  0.00  0.00    +0.000 HD
ATOM     25  H   UNL     1       1.983  -0.459  -4.347  0.00  0.00    +0.000 HD
ENDBRANCH   6  14
BRANCH   1  26
ATOM     26  N   UNL     1      -1.138   1.201   3.396  0.00  0.00    +0.000 N 
ATOM     27  H   UNL     1      -1.283   2.101   3.848  0.00  0.00    +0.000 HD
BRANCH  26  29
ATOM     28  O   UNL     1      -0.498   0.450   5.705  0.00  0.00    +0.000 OA
ATOM     29  S   UNL     1      -0.718  -0.085   4.378  0.00  0.00    +0.000 S 
ATOM     30  O   UNL     1      -1.664  -1.160   4.167  0.00  0.00    +0.000 OA
BRANCH  29  31
ATOM     31  C   UNL     1       0.850  -0.611   3.760  0.00  0.00    +0.000 A 
ATOM     32  C   UNL     1       1.014  -1.910   3.264  0.00  0.00    +0.000 A 
ATOM     33  C   UNL     1       2.284  -2.335   2.860  0.00  0.00    +0.000 A 
ATOM     34  C   UNL     1       3.372  -1.469   2.958  0.00  0.00    +0.000 A 
ATOM     35 CL   UNL     1       4.936  -2.008   2.488  0.00  0.00    +0.000 Cl
ATOM     36  C   UNL     1       3.204  -0.171   3.438  0.00  0.00    +0.000 A 
ATOM     37  C   UNL     1       1.937   0.251   3.840  0.00  0.00    +0.000 A 
ATOM     38  F   UNL     1       1.795   1.508   4.282  0.00  0.00    +0.000 F 
ATOM     39  H   UNL     1       0.171  -2.595   3.204  0.00  0.00    +0.000 HD
ATOM     40  H   UNL     1       2.417  -3.350   2.489  0.00  0.00    +0.000 HD
ATOM     41  H   UNL     1       4.045   0.511   3.515  0.00  0.00    +0.000 HD
ENDBRANCH  29  31
ENDBRANCH  26  29
ENDBRANCH   1  26
TORSDOF 4
