REMARK  Name = 
REMARK  2 active torsions:
REMARK  status: ('A' for Active; 'I' for Inactive)
REMARK    1  A    between atoms: N_3  and  C_4
REMARK    2  A    between atoms: C_15  and  C_16
REMARK                            x       y       z     vdW  Elec       q    Type
REMARK                         _______ _______ _______ _____ _____    ______ ____
ROOT
ATOM      1  N   UNL     1      -2.745  -1.008   0.523  0.00  0.00    +0.000 N 
ATOM      2  C   UNL     1      -1.407  -0.937   0.376  0.00  0.00    +0.000 C 
ATOM      3  N   UNL     1      -0.849  -0.040  -0.466  0.00  0.00    +0.000 N 
ATOM      4  N   UNL     1      -0.649  -1.832   1.050  0.00  0.00    +0.000 N 
ATOM      5  C   UNL     1       0.755  -1.878   1.097  0.00  0.00    +0.000 A 
ATOM      6  N   UNL     1       1.439  -0.987   0.474  0.00  0.00    +0.000 NA
ATOM      7  C   UNL     1       2.822  -1.042   0.603  0.00  0.00    +0.000 A 
ATOM      8  C   UNL     1       3.449  -2.048   1.240  0.00  0.00    +0.000 A 
ATOM      9  C   UNL     1       2.624  -3.097   1.850  0.00  0.00    +0.000 A 
ATOM     10  O   UNL     1       3.121  -4.098   2.347  0.00  0.00    +0.000 OA
ATOM     11  N   UNL     1       1.280  -2.892   1.816  0.00  0.00    +0.000 N 
ATOM     12  H   UNL     1      -3.351  -0.472  -0.088  0.00  0.00    +0.000 HD
ATOM     13  H   UNL     1      -3.200  -1.653   1.154  0.00  0.00    +0.000 HD
ATOM     14  H   UNL     1       0.105  -0.243  -0.771  0.00  0.00    +0.000 HD
ATOM     15  H   UNL     1      -1.148  -2.512   1.601  0.00  0.00    +0.000 HD
ATOM     16  H   UNL     1       4.523  -2.121   1.345  0.00  0.00    +0.000 HD
ATOM     17  H   UNL     1       0.732  -3.617   2.252  0.00  0.00    +0.000 HD
ENDROOT
BRANCH   3  18
ATOM     18  C   UNL     1      -1.433   1.178  -0.900  0.00  0.00    +0.000 A 
ATOM     19  C   UNL     1      -2.297   1.910  -0.086  0.00  0.00    +0.000 A 
ATOM     20  C   UNL     1      -2.844   3.105  -0.557  0.00  0.00    +0.000 A 
ATOM     21 CL   UNL     1      -3.911   3.994   0.455  0.00  0.00    +0.000 Cl
ATOM     22  C   UNL     1      -2.537   3.574  -1.829  0.00  0.00    +0.000 A 
ATOM     23  C   UNL     1      -1.643   2.857  -2.618  0.00  0.00    +0.000 A 
ATOM     24 CL   UNL     1      -1.259   3.417  -4.197  0.00  0.00    +0.000 Cl
ATOM     25  C   UNL     1      -1.069   1.673  -2.150  0.00  0.00    +0.000 A 
ATOM     26  H   UNL     1      -2.515   1.596   0.930  0.00  0.00    +0.000 HD
ATOM     27  H   UNL     1      -2.983   4.495  -2.199  0.00  0.00    +0.000 HD
ATOM     28  H   UNL     1      -0.370   1.130  -2.782  0.00  0.00    +0.000 HD
ENDBRANCH   3  18
BRANCH   7  29
ATOM     29  C   UNL     1       3.641   0.103   0.025  0.00  0.00    +0.000 C 
ATOM     30  F   UNL     1       2.851   1.025  -0.587  0.00  0.00    +0.000 F 
ATOM     31  F   UNL     1       4.336   0.752   0.990  0.00  0.00    +0.000 F 
ATOM     32  F   UNL     1       4.532  -0.333  -0.897  0.00  0.00    +0.000 F 
ENDBRANCH   7  29
TORSDOF 2
