REMARK  Name = 
REMARK  7 active torsions:
REMARK  status: ('A' for Active; 'I' for Inactive)
REMARK    1  A    between atoms: C_1  and  C_2
REMARK    2  A    between atoms: C_2  and  C_3
REMARK    3  A    between atoms: C_3  and  C_4
REMARK    4  A    between atoms: C_3  and  C_5
REMARK    5  A    between atoms: C_8  and  N_9
REMARK    6  A    between atoms: C_10  and  C_12
REMARK    7  A    between atoms: C_12  and  N_13
REMARK                            x       y       z     vdW  Elec       q    Type
REMARK                         _______ _______ _______ _____ _____    ______ ____
ROOT
ATOM      1  N   UNL     1      -0.671   0.059   0.364  0.00  0.00    +0.000 N 
ATOM      2  C   UNL     1      -0.237  -0.516   1.538  0.00  0.00    +0.000 C 
ATOM      3  O   UNL     1      -0.959  -0.980   2.422  0.00  0.00    +0.000 OA
ATOM      4  H   UNL     1       0.008   0.596  -0.165  0.00  0.00    +0.000 HD
ENDROOT
BRANCH   1   8
ATOM      5  C   UNL     1      -4.723   0.861  -0.411  0.00  0.00    +0.000 A 
ATOM      6  C   UNL     1      -3.725   1.816  -0.650  0.00  0.00    +0.000 A 
ATOM      7  C   UNL     1      -2.383   1.521  -0.429  0.00  0.00    +0.000 A 
ATOM      8  C   UNL     1      -2.027   0.289   0.099  0.00  0.00    +0.000 A 
ATOM      9  C   UNL     1      -3.009  -0.679   0.348  0.00  0.00    +0.000 A 
ATOM     10  C   UNL     1      -4.349  -0.395   0.080  0.00  0.00    +0.000 A 
ATOM     11  H   UNL     1      -3.990   2.815  -0.989  0.00  0.00    +0.000 HD
ATOM     12  H   UNL     1      -1.633   2.287  -0.591  0.00  0.00    +0.000 HD
ATOM     13  H   UNL     1      -2.742  -1.664   0.734  0.00  0.00    +0.000 HD
ATOM     14  H   UNL     1      -5.095  -1.168   0.268  0.00  0.00    +0.000 HD
BRANCH   5  15
ATOM     15  C   UNL     1      -6.175   1.228  -0.655  0.00  0.00    +0.000 C 
ATOM     16  H   UNL     1      -6.215   2.264  -1.019  0.00  0.00    +0.000 HD
BRANCH  15  17
ATOM     17  C   UNL     1      -6.776   0.355  -1.762  0.00  0.00    +0.000 C 
ATOM     18  H   UNL     1      -6.825  -0.700  -1.474  0.00  0.00    +0.000 HD
ATOM     19  H   UNL     1      -6.179   0.423  -2.679  0.00  0.00    +0.000 HD
ATOM     20  H   UNL     1      -7.792   0.684  -2.002  0.00  0.00    +0.000 HD
ENDBRANCH  15  17
BRANCH  15  21
ATOM     21  C   UNL     1      -7.025   1.157   0.628  0.00  0.00    +0.000 C 
ATOM     22  H   UNL     1      -8.068   1.392   0.381  0.00  0.00    +0.000 HD
ATOM     23  H   UNL     1      -7.023   0.143   1.043  0.00  0.00    +0.000 HD
BRANCH  21  24
ATOM     24  C   UNL     1      -6.561   2.136   1.702  0.00  0.00    +0.000 C 
ATOM     25  H   UNL     1      -7.194   2.048   2.591  0.00  0.00    +0.000 HD
ATOM     26  H   UNL     1      -6.623   3.168   1.342  0.00  0.00    +0.000 HD
ATOM     27  H   UNL     1      -5.530   1.942   2.012  0.00  0.00    +0.000 HD
ENDBRANCH  21  24
ENDBRANCH  15  21
ENDBRANCH   5  15
ENDBRANCH   1   8
BRANCH   2  28
ATOM     28  C   UNL     1       1.260  -0.726   1.609  0.00  0.00    +0.000 C 
ATOM     29  H   UNL     1       1.427  -1.675   1.069  0.00  0.00    +0.000 HD
ATOM     30  H   UNL     1       1.541  -0.916   2.650  0.00  0.00    +0.000 HD
BRANCH  28  31
ATOM     31  N   UNL     1       2.149   0.277   1.039  0.00  0.00    +0.000 N 
ATOM     32  C   UNL     1       3.100   0.880   1.848  0.00  0.00    +0.000 C 
ATOM     33  O   UNL     1       2.990   1.188   3.020  0.00  0.00    +0.000 OA
ATOM     34  N   UNL     1       4.317   0.904   1.145  0.00  0.00    +0.000 N 
ATOM     35  C   UNL     1       4.252  -0.165   0.194  0.00  0.00    +0.000 C 
ATOM     36  C   UNL     1       4.487  -1.523   0.926  0.00  0.00    +0.000 C 
ATOM     37  C   UNL     1       4.510  -2.629  -0.154  0.00  0.00    +0.000 C 
ATOM     38  C   UNL     1       5.466  -1.773  -0.981  0.00  0.00    +0.000 A 
ATOM     39  C   UNL     1       6.525  -2.308  -1.695  0.00  0.00    +0.000 A 
ATOM     40  C   UNL     1       7.396  -1.422  -2.326  0.00  0.00    +0.000 A 
ATOM     41  C   UNL     1       7.160  -0.035  -2.282  0.00  0.00    +0.000 A 
ATOM     42  C   UNL     1       6.090   0.498  -1.549  0.00  0.00    +0.000 A 
ATOM     43  C   UNL     1       5.268  -0.379  -0.862  0.00  0.00    +0.000 A 
ATOM     44  C   UNL     1       2.776  -0.076  -0.143  0.00  0.00    +0.000 C 
ATOM     45  O   UNL     1       2.195  -0.437  -1.159  0.00  0.00    +0.000 OA
ATOM     46  H   UNL     1       5.149   1.078   1.695  0.00  0.00    +0.000 HD
ATOM     47  H   UNL     1       3.762  -1.744   1.720  0.00  0.00    +0.000 HD
ATOM     48  H   UNL     1       5.452  -1.506   1.466  0.00  0.00    +0.000 HD
ATOM     49  H   UNL     1       3.416  -2.725   0.013  0.00  0.00    +0.000 HD
ATOM     50  H   UNL     1       4.051  -2.875  -1.138  0.00  0.00    +0.000 HD
ATOM     51  H   UNL     1       6.706  -3.375  -1.704  0.00  0.00    +0.000 HD
ATOM     52  H   UNL     1       8.266  -1.815  -2.845  0.00  0.00    +0.000 HD
ATOM     53  H   UNL     1       7.851   0.627  -2.798  0.00  0.00    +0.000 HD
ATOM     54  H   UNL     1       5.957   1.574  -1.487  0.00  0.00    +0.000 HD
ENDBRANCH  28  31
ENDBRANCH   2  28
TORSDOF 7
