REMARK  Name = 
REMARK  3 active torsions:
REMARK  status: ('A' for Active; 'I' for Inactive)
REMARK    1  A    between atoms: C_2  and  C_20
REMARK    2  A    between atoms: N_3  and  N_4
REMARK    3  A    between atoms: C_5  and  C_7
REMARK                            x       y       z     vdW  Elec       q    Type
REMARK                         _______ _______ _______ _____ _____    ______ ____
ROOT
ATOM      1  N   UNL     1       0.431   0.407   0.832  0.00  0.00    +0.000 N 
ATOM      2  C   UNL     1       1.133  -0.378  -0.066  0.00  0.00    +0.000 C 
ATOM      3  O   UNL     1       2.363  -0.445   0.002  0.00  0.00    +0.000 OA
ATOM      4  H   UNL     1      -0.582   0.503   0.819  0.00  0.00    +0.000 HD
ENDROOT
BRANCH   2   5
ATOM      5  C   UNL     1       0.356  -1.108  -1.061  0.00  0.00    +0.000 A 
ATOM      6  C   UNL     1       0.865  -1.993  -1.996  0.00  0.00    +0.000 A 
ATOM      7  C   UNL     1      -0.145  -2.555  -2.827  0.00  0.00    +0.000 A 
ATOM      8  C   UNL     1      -1.403  -2.067  -2.518  0.00  0.00    +0.000 A 
ATOM      9  S   UNL     1      -1.347  -0.962  -1.222  0.00  0.00    +0.000 S 
ATOM     10  C   UNL     1      -2.614  -2.470  -3.257  0.00  0.00    +0.000 A 
ATOM     11  C   UNL     1      -3.919  -2.241  -2.808  0.00  0.00    +0.000 A 
ATOM     12  C   UNL     1      -5.013  -2.687  -3.557  0.00  0.00    +0.000 A 
ATOM     13  C   UNL     1      -4.818  -3.358  -4.763  0.00  0.00    +0.000 A 
ATOM     14  C   UNL     1      -3.526  -3.589  -5.231  0.00  0.00    +0.000 A 
ATOM     15  C   UNL     1      -2.421  -3.163  -4.481  0.00  0.00    +0.000 A 
ATOM     16  C   UNL     1      -1.017  -3.375  -5.025  0.00  0.00    +0.000 C 
ATOM     17  C   UNL     1       0.031  -3.569  -3.916  0.00  0.00    +0.000 C 
ATOM     18  H   UNL     1       1.922  -2.229  -2.065  0.00  0.00    +0.000 HD
ATOM     19  H   UNL     1      -4.107  -1.726  -1.870  0.00  0.00    +0.000 HD
ATOM     20  H   UNL     1      -6.023  -2.509  -3.196  0.00  0.00    +0.000 HD
ATOM     21  H   UNL     1      -5.674  -3.698  -5.341  0.00  0.00    +0.000 HD
ATOM     22  H   UNL     1      -3.386  -4.102  -6.179  0.00  0.00    +0.000 HD
ATOM     23  H   UNL     1      -0.758  -2.495  -5.627  0.00  0.00    +0.000 HD
ATOM     24  H   UNL     1      -0.992  -4.247  -5.689  0.00  0.00    +0.000 HD
ATOM     25  H   UNL     1       1.039  -3.517  -4.342  0.00  0.00    +0.000 HD
ATOM     26  H   UNL     1      -0.087  -4.568  -3.474  0.00  0.00    +0.000 HD
ENDBRANCH   2   5
BRANCH   1  29
ATOM     27  O   UNL     1      -0.796   2.005   2.659  0.00  0.00    +0.000 OA
ATOM     28  C   UNL     1       0.432   1.940   2.669  0.00  0.00    +0.000 C 
ATOM     29  N   UNL     1       1.143   1.160   1.780  0.00  0.00    +0.000 N 
ATOM     30  H   UNL     1       2.142   0.973   1.848  0.00  0.00    +0.000 HD
BRANCH  28  31
ATOM     31  C   UNL     1       1.221   2.699   3.676  0.00  0.00    +0.000 A 
ATOM     32  C   UNL     1       0.609   2.986   4.919  0.00  0.00    +0.000 A 
ATOM     33  C   UNL     1       1.279   3.732   5.895  0.00  0.00    +0.000 A 
ATOM     34  C   UNL     1       2.541   4.192   5.592  0.00  0.00    +0.000 A 
ATOM     35  C   UNL     1       3.138   3.923   4.381  0.00  0.00    +0.000 A 
ATOM     36  C   UNL     1       2.511   3.176   3.402  0.00  0.00    +0.000 A 
ATOM     37  O   UNL     1       4.371   4.488   4.278  0.00  0.00    +0.000 OA
ATOM     38  C   UNL     1       4.458   5.187   5.539  0.00  0.00    +0.000 C 
ATOM     39  O   UNL     1       3.325   4.953   6.400  0.00  0.00    +0.000 OA
ATOM     40  H   UNL     1      -0.399   2.627   5.121  0.00  0.00    +0.000 HD
ATOM     41  H   UNL     1       0.816   3.955   6.850  0.00  0.00    +0.000 HD
ATOM     42  H   UNL     1       3.003   3.015   2.450  0.00  0.00    +0.000 HD
ATOM     43  H   UNL     1       4.530   6.263   5.339  0.00  0.00    +0.000 HD
ATOM     44  H   UNL     1       5.369   4.866   6.059  0.00  0.00    +0.000 HD
ENDBRANCH  28  31
ENDBRANCH   1  29
TORSDOF 3
