MODEL 1
REMARK VINA RESULT:    -9.957      0.000      0.000
REMARK INTER + INTRA:         -11.085
REMARK INTER:                 -11.412
REMARK INTRA:                   0.327
REMARK UNBOUND:                 0.327
REMARK  Name = 
REMARK  3 active torsions:
REMARK  status: ('A' for Active; 'I' for Inactive)
REMARK    1  A    between atoms: N_1  and  C_2
REMARK    2  A    between atoms: C_13  and  N_14
REMARK    3  A    between atoms: N_14  and  C_15
REMARK                            x       y       z     vdW  Elec       q    Type
REMARK                         _______ _______ _______ _____ _____    ______ ____
ROOT
ATOM      1  C   UNL     1      -8.915  -6.668  17.924  0.00  0.00    +0.000 A 
ATOM      2  C   UNL     1      -8.641  -6.082  19.181  0.00  0.00    +0.000 A 
ATOM      3  N   UNL     1      -8.564  -4.672  19.239  0.00  0.00    +0.000 N 
ATOM      4  C   UNL     1      -8.219  -3.970  20.346  0.00  0.00    +0.000 A 
ATOM      5  N   UNL     1      -7.432  -4.368  21.322  0.00  0.00    +0.000 NA
ATOM      6  C   UNL     1      -7.327  -3.386  22.289  0.00  0.00    +0.000 A 
ATOM      7  C   UNL     1      -8.021  -2.226  22.034  0.00  0.00    +0.000 A 
ATOM      8  S   UNL     1      -8.827  -2.360  20.533  0.00  0.00    +0.000 S 
ATOM      9  N   UNL     1      -8.461  -6.827  20.289  0.00  0.00    +0.000 NA
ATOM     10  C   UNL     1      -8.607  -8.150  20.169  0.00  0.00    +0.000 A 
ATOM     11  N   UNL     1      -8.932  -8.762  19.038  0.00  0.00    +0.000 N 
ATOM     12  C   UNL     1      -9.112  -8.064  17.907  0.00  0.00    +0.000 A 
ATOM     13  H   UNL     1      -9.302  -4.247  18.685  0.00  0.00    +0.000 HD
ATOM     14  H   UNL     1      -6.723  -3.570  23.170  0.00  0.00    +0.000 HD
ATOM     15  H   UNL     1      -8.086  -1.332  22.638  0.00  0.00    +0.000 HD
ATOM     16  H   UNL     1      -8.474  -8.758  21.055  0.00  0.00    +0.000 HD
ATOM     17  H   UNL     1      -9.044  -9.769  19.022  0.00  0.00    +0.000 HD
ENDROOT
BRANCH   1  18
ATOM     18  N   UNL     1      -9.221  -5.856  16.806  0.00  0.00    +0.000 N 
ATOM     19  H   UNL     1      -8.565  -5.079  16.681  0.00  0.00    +0.000 HD
ATOM     20  H   UNL     1      -9.416  -6.324  15.930  0.00  0.00    +0.000 HD
ENDBRANCH   1  18
BRANCH  12  21
ATOM     21  N   UNL     1      -9.526  -8.750  16.749  0.00  0.00    +0.000 N 
ATOM     22  H   UNL     1      -9.690  -8.132  15.955  0.00  0.00    +0.000 HD
BRANCH  21  23
ATOM     23  C   UNL     1      -9.145 -10.058  16.392  0.00  0.00    +0.000 A 
ATOM     24  C   UNL     1      -8.917 -10.388  15.045  0.00  0.00    +0.000 A 
ATOM     25  C   UNL     1      -8.731 -11.713  14.653  0.00  0.00    +0.000 A 
ATOM     26  C   UNL     1      -8.751 -12.721  15.612  0.00  0.00    +0.000 A 
ATOM     27 BR   UNL     1      -8.575 -14.522  15.075  0.00  0.00    +0.000 Br
ATOM     28  C   UNL     1      -8.919 -12.407  16.960  0.00  0.00    +0.000 A 
ATOM     29  C   UNL     1      -9.114 -11.078  17.349  0.00  0.00    +0.000 A 
ATOM     30  H   UNL     1      -8.866  -9.610  14.285  0.00  0.00    +0.000 HD
ATOM     31  H   UNL     1      -8.568 -11.949  13.604  0.00  0.00    +0.000 HD
ATOM     32  H   UNL     1      -8.912 -13.194  17.712  0.00  0.00    +0.000 HD
ATOM     33  H   UNL     1      -9.264 -10.866  18.407  0.00  0.00    +0.000 HD
ENDBRANCH  21  23
ENDBRANCH  12  21
TORSDOF 3
ENDMDL
MODEL 2
REMARK VINA RESULT:    -9.818      1.843      2.115
REMARK INTER + INTRA:         -10.926
REMARK INTER:                 -10.725
REMARK INTRA:                  -0.201
REMARK UNBOUND:                 0.327
REMARK  Name = 
REMARK  3 active torsions:
REMARK  status: ('A' for Active; 'I' for Inactive)
REMARK    1  A    between atoms: N_1  and  C_2
REMARK    2  A    between atoms: C_13  and  N_14
REMARK    3  A    between atoms: N_14  and  C_15
REMARK                            x       y       z     vdW  Elec       q    Type
REMARK                         _______ _______ _______ _____ _____    ______ ____
ROOT
ATOM      1  C   UNL     1     -10.532  -5.744  17.285  0.00  0.00    +0.000 A 
ATOM      2  C   UNL     1     -10.001  -4.878  18.269  0.00  0.00    +0.000 A 
ATOM      3  N   UNL     1     -10.831  -3.833  18.733  0.00  0.00    +0.000 N 
ATOM      4  C   UNL     1     -10.434  -2.871  19.601  0.00  0.00    +0.000 A 
ATOM      5  N   UNL     1      -9.217  -2.398  19.758  0.00  0.00    +0.000 NA
ATOM      6  C   UNL     1      -9.196  -1.436  20.749  0.00  0.00    +0.000 A 
ATOM      7  C   UNL     1     -10.410  -1.160  21.334  0.00  0.00    +0.000 A 
ATOM      8  S   UNL     1     -11.623  -2.128  20.618  0.00  0.00    +0.000 S 
ATOM      9  N   UNL     1      -8.754  -5.035  18.755  0.00  0.00    +0.000 NA
ATOM     10  C   UNL     1      -8.050  -6.081  18.312  0.00  0.00    +0.000 A 
ATOM     11  N   UNL     1      -8.509  -6.972  17.444  0.00  0.00    +0.000 N 
ATOM     12  C   UNL     1      -9.740  -6.853  16.925  0.00  0.00    +0.000 A 
ATOM     13  H   UNL     1     -11.781  -4.163  18.876  0.00  0.00    +0.000 HD
ATOM     14  H   UNL     1      -8.257  -0.961  21.008  0.00  0.00    +0.000 HD
ATOM     15  H   UNL     1     -10.636  -0.453  22.120  0.00  0.00    +0.000 HD
ATOM     16  H   UNL     1      -7.050  -6.222  18.704  0.00  0.00    +0.000 HD
ATOM     17  H   UNL     1      -7.927  -7.752  17.164  0.00  0.00    +0.000 HD
ENDROOT
BRANCH   1  18
ATOM     18  N   UNL     1     -11.885  -5.629  16.884  0.00  0.00    +0.000 N 
ATOM     19  H   UNL     1     -12.224  -6.449  16.374  0.00  0.00    +0.000 HD
ATOM     20  H   UNL     1     -12.552  -5.320  17.580  0.00  0.00    +0.000 HD
ENDBRANCH   1  18
BRANCH  12  21
ATOM     21  N   UNL     1     -10.209  -7.863  16.062  0.00  0.00    +0.000 N 
ATOM     22  H   UNL     1     -10.623  -7.497  15.206  0.00  0.00    +0.000 HD
BRANCH  21  23
ATOM     23  C   UNL     1      -9.653  -9.150  15.929  0.00  0.00    +0.000 A 
ATOM     24  C   UNL     1      -9.053  -9.542  14.720  0.00  0.00    +0.000 A 
ATOM     25  C   UNL     1      -8.674 -10.866  14.505  0.00  0.00    +0.000 A 
ATOM     26  C   UNL     1      -8.874 -11.808  15.509  0.00  0.00    +0.000 A 
ATOM     27 BR   UNL     1      -8.430 -13.616  15.192  0.00  0.00    +0.000 Br
ATOM     28  C   UNL     1      -9.415 -11.427  16.735  0.00  0.00    +0.000 A 
ATOM     29  C   UNL     1      -9.802 -10.099  16.946  0.00  0.00    +0.000 A 
ATOM     30  H   UNL     1      -8.860  -8.812  13.935  0.00  0.00    +0.000 HD
ATOM     31  H   UNL     1      -8.222 -11.152  13.558  0.00  0.00    +0.000 HD
ATOM     32  H   UNL     1      -9.549 -12.161  17.528  0.00  0.00    +0.000 HD
ATOM     33  H   UNL     1     -10.242  -9.836  17.906  0.00  0.00    +0.000 HD
ENDBRANCH  21  23
ENDBRANCH  12  21
TORSDOF 3
ENDMDL
MODEL 3
REMARK VINA RESULT:    -9.765      3.278      4.077
REMARK INTER + INTRA:         -10.865
REMARK INTER:                 -10.534
REMARK INTRA:                  -0.331
REMARK UNBOUND:                 0.327
REMARK  Name = 
REMARK  3 active torsions:
REMARK  status: ('A' for Active; 'I' for Inactive)
REMARK    1  A    between atoms: N_1  and  C_2
REMARK    2  A    between atoms: C_13  and  N_14
REMARK    3  A    between atoms: N_14  and  C_15
REMARK                            x       y       z     vdW  Elec       q    Type
REMARK                         _______ _______ _______ _____ _____    ______ ____
ROOT
ATOM      1  C   UNL     1      -9.225  -6.727  16.989  0.00  0.00    +0.000 A 
ATOM      2  C   UNL     1     -10.195  -5.753  16.663  0.00  0.00    +0.000 A 
ATOM      3  N   UNL     1      -9.766  -4.631  15.919  0.00  0.00    +0.000 N 
ATOM      4  C   UNL     1     -10.554  -3.571  15.611  0.00  0.00    +0.000 A 
ATOM      5  N   UNL     1     -11.577  -3.118  16.302  0.00  0.00    +0.000 NA
ATOM      6  C   UNL     1     -12.146  -2.031  15.666  0.00  0.00    +0.000 A 
ATOM      7  C   UNL     1     -11.538  -1.643  14.495  0.00  0.00    +0.000 A 
ATOM      8  S   UNL     1     -10.203  -2.664  14.180  0.00  0.00    +0.000 S 
ATOM      9  N   UNL     1     -11.484  -5.879  17.038  0.00  0.00    +0.000 NA
ATOM     10  C   UNL     1     -11.827  -6.995  17.687  0.00  0.00    +0.000 A 
ATOM     11  N   UNL     1     -10.986  -7.982  17.965  0.00  0.00    +0.000 N 
ATOM     12  C   UNL     1      -9.692  -7.898  17.621  0.00  0.00    +0.000 A 
ATOM     13  H   UNL     1      -9.129  -4.910  15.179  0.00  0.00    +0.000 HD
ATOM     14  H   UNL     1     -13.015  -1.553  16.105  0.00  0.00    +0.000 HD
ATOM     15  H   UNL     1     -11.802  -0.830  13.834  0.00  0.00    +0.000 HD
ATOM     16  H   UNL     1     -12.862  -7.111  17.985  0.00  0.00    +0.000 HD
ATOM     17  H   UNL     1     -11.318  -8.810  18.446  0.00  0.00    +0.000 HD
ENDROOT
BRANCH   1  18
ATOM     18  N   UNL     1      -7.909  -6.628  16.477  0.00  0.00    +0.000 N 
ATOM     19  H   UNL     1      -7.188  -6.789  17.186  0.00  0.00    +0.000 HD
ATOM     20  H   UNL     1      -7.705  -7.124  15.619  0.00  0.00    +0.000 HD
ENDBRANCH   1  18
BRANCH  12  21
ATOM     21  N   UNL     1      -8.854  -9.001  17.874  0.00  0.00    +0.000 N 
ATOM     22  H   UNL     1      -8.520  -9.038  18.836  0.00  0.00    +0.000 HD
BRANCH  21  23
ATOM     23  C   UNL     1      -8.943 -10.259  17.246  0.00  0.00    +0.000 A 
ATOM     24  C   UNL     1      -8.617 -11.429  17.953  0.00  0.00    +0.000 A 
ATOM     25  C   UNL     1      -8.513 -12.656  17.299  0.00  0.00    +0.000 A 
ATOM     26  C   UNL     1      -8.755 -12.726  15.930  0.00  0.00    +0.000 A 
ATOM     27 BR   UNL     1      -8.541 -14.370  15.029  0.00  0.00    +0.000 Br
ATOM     28  C   UNL     1      -9.135 -11.587  15.223  0.00  0.00    +0.000 A 
ATOM     29  C   UNL     1      -9.231 -10.355  15.881  0.00  0.00    +0.000 A 
ATOM     30  H   UNL     1      -8.456 -11.400  19.030  0.00  0.00    +0.000 HD
ATOM     31  H   UNL     1      -8.248 -13.548  17.861  0.00  0.00    +0.000 HD
ATOM     32  H   UNL     1      -9.347 -11.647  14.157  0.00  0.00    +0.000 HD
ATOM     33  H   UNL     1      -9.509  -9.478  15.298  0.00  0.00    +0.000 HD
ENDBRANCH  21  23
ENDBRANCH  12  21
TORSDOF 3
ENDMDL
MODEL 4
REMARK VINA RESULT:    -9.683      1.984      2.881
REMARK INTER + INTRA:         -10.771
REMARK INTER:                 -11.332
REMARK INTRA:                   0.560
REMARK UNBOUND:                 0.327
REMARK  Name = 
REMARK  3 active torsions:
REMARK  status: ('A' for Active; 'I' for Inactive)
REMARK    1  A    between atoms: N_1  and  C_2
REMARK    2  A    between atoms: C_13  and  N_14
REMARK    3  A    between atoms: N_14  and  C_15
REMARK                            x       y       z     vdW  Elec       q    Type
REMARK                         _______ _______ _______ _____ _____    ______ ____
ROOT
ATOM      1  C   UNL     1      -9.535  -7.200  18.952  0.00  0.00    +0.000 A 
ATOM      2  C   UNL     1     -10.061  -6.023  18.371  0.00  0.00    +0.000 A 
ATOM      3  N   UNL     1      -9.903  -4.816  19.090  0.00  0.00    +0.000 N 
ATOM      4  C   UNL     1     -10.433  -3.627  18.711  0.00  0.00    +0.000 A 
ATOM      5  N   UNL     1     -11.529  -3.435  18.011  0.00  0.00    +0.000 NA
ATOM      6  C   UNL     1     -11.741  -2.085  17.807  0.00  0.00    +0.000 A 
ATOM      7  C   UNL     1     -10.812  -1.245  18.375  0.00  0.00    +0.000 A 
ATOM      8  S   UNL     1      -9.635  -2.171  19.200  0.00  0.00    +0.000 S 
ATOM      9  N   UNL     1     -10.688  -6.037  17.178  0.00  0.00    +0.000 NA
ATOM     10  C   UNL     1     -10.746  -7.204  16.531  0.00  0.00    +0.000 A 
ATOM     11  N   UNL     1     -10.214  -8.332  16.981  0.00  0.00    +0.000 N 
ATOM     12  C   UNL     1      -9.589  -8.371  18.167  0.00  0.00    +0.000 A 
ATOM     13  H   UNL     1      -8.973  -4.754  19.491  0.00  0.00    +0.000 HD
ATOM     14  H   UNL     1     -12.601  -1.763  17.230  0.00  0.00    +0.000 HD
ATOM     15  H   UNL     1     -10.772  -0.165  18.350  0.00  0.00    +0.000 HD
ATOM     16  H   UNL     1     -11.240  -7.225  15.566  0.00  0.00    +0.000 HD
ATOM     17  H   UNL     1     -10.280  -9.179  16.429  0.00  0.00    +0.000 HD
ENDROOT
BRANCH   1  18
ATOM     18  N   UNL     1      -8.776  -7.133  20.144  0.00  0.00    +0.000 N 
ATOM     19  H   UNL     1      -9.197  -7.654  20.919  0.00  0.00    +0.000 HD
ATOM     20  H   UNL     1      -7.782  -7.309  20.074  0.00  0.00    +0.000 HD
ENDBRANCH   1  18
BRANCH  12  21
ATOM     21  N   UNL     1      -8.978  -9.573  18.570  0.00  0.00    +0.000 N 
ATOM     22  H   UNL     1      -9.160  -9.808  19.545  0.00  0.00    +0.000 HD
BRANCH  21  23
ATOM     23  C   UNL     1      -8.743 -10.690  17.743  0.00  0.00    +0.000 A 
ATOM     24  C   UNL     1      -8.881 -10.581  16.349  0.00  0.00    +0.000 A 
ATOM     25  C   UNL     1      -8.843 -11.711  15.535  0.00  0.00    +0.000 A 
ATOM     26  C   UNL     1      -8.647 -12.964  16.109  0.00  0.00    +0.000 A 
ATOM     27 BR   UNL     1      -8.671 -14.504  15.018  0.00  0.00    +0.000 Br
ATOM     28  C   UNL     1      -8.451 -13.085  17.483  0.00  0.00    +0.000 A 
ATOM     29  C   UNL     1      -8.498 -11.949  18.300  0.00  0.00    +0.000 A 
ATOM     30  H   UNL     1      -9.004  -9.606  15.878  0.00  0.00    +0.000 HD
ATOM     31  H   UNL     1      -8.964 -11.608  14.459  0.00  0.00    +0.000 HD
ATOM     32  H   UNL     1      -8.274 -14.062  17.929  0.00  0.00    +0.000 HD
ATOM     33  H   UNL     1      -8.363 -12.078  19.372  0.00  0.00    +0.000 HD
ENDBRANCH  21  23
ENDBRANCH  12  21
TORSDOF 3
ENDMDL
MODEL 5
REMARK VINA RESULT:    -9.415      2.155      3.076
REMARK INTER + INTRA:         -10.464
REMARK INTER:                 -10.226
REMARK INTRA:                  -0.239
REMARK UNBOUND:                 0.327
REMARK  Name = 
REMARK  3 active torsions:
REMARK  status: ('A' for Active; 'I' for Inactive)
REMARK    1  A    between atoms: N_1  and  C_2
REMARK    2  A    between atoms: C_13  and  N_14
REMARK    3  A    between atoms: N_14  and  C_15
REMARK                            x       y       z     vdW  Elec       q    Type
REMARK                         _______ _______ _______ _____ _____    ______ ____
ROOT
ATOM      1  C   UNL     1      -9.382  -5.785  17.264  0.00  0.00    +0.000 A 
ATOM      2  C   UNL     1     -10.132  -4.722  17.818  0.00  0.00    +0.000 A 
ATOM      3  N   UNL     1      -9.524  -3.963  18.844  0.00  0.00    +0.000 N 
ATOM      4  C   UNL     1     -10.147  -2.977  19.535  0.00  0.00    +0.000 A 
ATOM      5  N   UNL     1     -11.433  -2.879  19.791  0.00  0.00    +0.000 NA
ATOM      6  C   UNL     1     -11.697  -1.727  20.507  0.00  0.00    +0.000 A 
ATOM      7  C   UNL     1     -10.601  -0.956  20.817  0.00  0.00    +0.000 A 
ATOM      8  S   UNL     1      -9.189  -1.697  20.200  0.00  0.00    +0.000 S 
ATOM      9  N   UNL     1     -11.376  -4.431  17.390  0.00  0.00    +0.000 NA
ATOM     10  C   UNL     1     -11.860  -5.153  16.377  0.00  0.00    +0.000 A 
ATOM     11  N   UNL     1     -11.188  -6.118  15.763  0.00  0.00    +0.000 N 
ATOM     12  C   UNL     1      -9.951  -6.451  16.158  0.00  0.00    +0.000 A 
ATOM     13  H   UNL     1      -8.551  -3.774  18.626  0.00  0.00    +0.000 HD
ATOM     14  H   UNL     1     -12.720  -1.495  20.782  0.00  0.00    +0.000 HD
ATOM     15  H   UNL     1     -10.563  -0.025  21.363  0.00  0.00    +0.000 HD
ATOM     16  H   UNL     1     -12.857  -4.921  16.018  0.00  0.00    +0.000 HD
ATOM     17  H   UNL     1     -11.611  -6.615  14.988  0.00  0.00    +0.000 HD
ENDROOT
BRANCH   1  18
ATOM     18  N   UNL     1      -8.035  -5.988  17.647  0.00  0.00    +0.000 N 
ATOM     19  H   UNL     1      -7.596  -6.781  17.170  0.00  0.00    +0.000 HD
ATOM     20  H   UNL     1      -7.428  -5.179  17.662  0.00  0.00    +0.000 HD
ENDBRANCH   1  18
BRANCH  12  21
ATOM     21  N   UNL     1      -9.250  -7.432  15.431  0.00  0.00    +0.000 N 
ATOM     22  H   UNL     1      -8.380  -7.087  15.029  0.00  0.00    +0.000 HD
BRANCH  21  23
ATOM     23  C   UNL     1      -9.248  -8.813  15.712  0.00  0.00    +0.000 A 
ATOM     24  C   UNL     1      -9.411  -9.269  17.031  0.00  0.00    +0.000 A 
ATOM     25  C   UNL     1      -9.218 -10.611  17.354  0.00  0.00    +0.000 A 
ATOM     26  C   UNL     1      -8.879 -11.516  16.352  0.00  0.00    +0.000 A 
ATOM     27 BR   UNL     1      -8.544 -13.318  16.799  0.00  0.00    +0.000 Br
ATOM     28  C   UNL     1      -8.768 -11.092  15.029  0.00  0.00    +0.000 A 
ATOM     29  C   UNL     1      -8.954  -9.743  14.709  0.00  0.00    +0.000 A 
ATOM     30  H   UNL     1      -9.707  -8.582  17.822  0.00  0.00    +0.000 HD
ATOM     31  H   UNL     1      -9.337 -10.943  18.383  0.00  0.00    +0.000 HD
ATOM     32  H   UNL     1      -8.526 -11.805  14.243  0.00  0.00    +0.000 HD
ATOM     33  H   UNL     1      -8.840  -9.438  13.670  0.00  0.00    +0.000 HD
ENDBRANCH  21  23
ENDBRANCH  12  21
TORSDOF 3
ENDMDL
MODEL 6
REMARK VINA RESULT:    -9.249      2.800      3.219
REMARK INTER + INTRA:         -10.273
REMARK INTER:                 -10.210
REMARK INTRA:                  -0.063
REMARK UNBOUND:                 0.327
REMARK  Name = 
REMARK  3 active torsions:
REMARK  status: ('A' for Active; 'I' for Inactive)
REMARK    1  A    between atoms: N_1  and  C_2
REMARK    2  A    between atoms: C_13  and  N_14
REMARK    3  A    between atoms: N_14  and  C_15
REMARK                            x       y       z     vdW  Elec       q    Type
REMARK                         _______ _______ _______ _____ _____    ______ ____
ROOT
ATOM      1  C   UNL     1     -11.003  -5.619  16.266  0.00  0.00    +0.000 A 
ATOM      2  C   UNL     1     -10.645  -4.493  17.041  0.00  0.00    +0.000 A 
ATOM      3  N   UNL     1     -11.061  -3.225  16.576  0.00  0.00    +0.000 N 
ATOM      4  C   UNL     1     -10.718  -2.048  17.157  0.00  0.00    +0.000 A 
ATOM      5  N   UNL     1      -9.623  -1.791  17.837  0.00  0.00    +0.000 NA
ATOM      6  C   UNL     1      -9.631  -0.485  18.290  0.00  0.00    +0.000 A 
ATOM      7  C   UNL     1     -10.730   0.260  17.933  0.00  0.00    +0.000 A 
ATOM      8  S   UNL     1     -11.788  -0.698  16.992  0.00  0.00    +0.000 S 
ATOM      9  N   UNL     1      -9.940  -4.611  18.183  0.00  0.00    +0.000 NA
ATOM     10  C   UNL     1      -9.634  -5.846  18.590  0.00  0.00    +0.000 A 
ATOM     11  N   UNL     1      -9.996  -6.950  17.951  0.00  0.00    +0.000 N 
ATOM     12  C   UNL     1     -10.691  -6.884  16.806  0.00  0.00    +0.000 A 
ATOM     13  H   UNL     1     -12.016  -3.261  16.232  0.00  0.00    +0.000 HD
ATOM     14  H   UNL     1      -8.799  -0.124  18.884  0.00  0.00    +0.000 HD
ATOM     15  H   UNL     1     -10.953   1.291  18.168  0.00  0.00    +0.000 HD
ATOM     16  H   UNL     1      -9.075  -5.953  19.512  0.00  0.00    +0.000 HD
ATOM     17  H   UNL     1      -9.745  -7.857  18.326  0.00  0.00    +0.000 HD
ENDROOT
BRANCH   1  18
ATOM     18  N   UNL     1     -11.848  -5.476  15.140  0.00  0.00    +0.000 N 
ATOM     19  H   UNL     1     -11.563  -4.714  14.517  0.00  0.00    +0.000 HD
ATOM     20  H   UNL     1     -12.081  -6.313  14.622  0.00  0.00    +0.000 HD
ENDBRANCH   1  18
BRANCH  12  21
ATOM     21  N   UNL     1     -11.114  -8.084  16.202  0.00  0.00    +0.000 N 
ATOM     22  H   UNL     1     -11.810  -7.940  15.472  0.00  0.00    +0.000 HD
BRANCH  21  23
ATOM     23  C   UNL     1     -10.322  -9.235  16.026  0.00  0.00    +0.000 A 
ATOM     24  C   UNL     1      -9.912  -9.624  14.739  0.00  0.00    +0.000 A 
ATOM     25  C   UNL     1      -9.297 -10.856  14.524  0.00  0.00    +0.000 A 
ATOM     26  C   UNL     1      -9.067 -11.705  15.603  0.00  0.00    +0.000 A 
ATOM     27 BR   UNL     1      -8.304 -13.405  15.305  0.00  0.00    +0.000 Br
ATOM     28  C   UNL     1      -9.415 -11.313  16.894  0.00  0.00    +0.000 A 
ATOM     29  C   UNL     1     -10.040 -10.078  17.106  0.00  0.00    +0.000 A 
ATOM     30  H   UNL     1     -10.054  -8.960  13.888  0.00  0.00    +0.000 HD
ATOM     31  H   UNL     1      -8.998 -11.144  13.520  0.00  0.00    +0.000 HD
ATOM     32  H   UNL     1      -9.214 -11.967  17.740  0.00  0.00    +0.000 HD
ATOM     33  H   UNL     1     -10.319  -9.808  18.123  0.00  0.00    +0.000 HD
ENDBRANCH  21  23
ENDBRANCH  12  21
TORSDOF 3
ENDMDL
MODEL 7
REMARK VINA RESULT:    -9.110      3.020      4.144
REMARK INTER + INTRA:         -10.114
REMARK INTER:                 -10.352
REMARK INTRA:                   0.238
REMARK UNBOUND:                 0.327
REMARK  Name = 
REMARK  3 active torsions:
REMARK  status: ('A' for Active; 'I' for Inactive)
REMARK    1  A    between atoms: N_1  and  C_2
REMARK    2  A    between atoms: C_13  and  N_14
REMARK    3  A    between atoms: N_14  and  C_15
REMARK                            x       y       z     vdW  Elec       q    Type
REMARK                         _______ _______ _______ _____ _____    ______ ____
ROOT
ATOM      1  C   UNL     1     -10.417  -6.386  17.469  0.00  0.00    +0.000 A 
ATOM      2  C   UNL     1     -10.544  -5.187  16.732  0.00  0.00    +0.000 A 
ATOM      3  N   UNL     1     -11.292  -4.140  17.315  0.00  0.00    +0.000 N 
ATOM      4  C   UNL     1     -11.580  -2.969  16.695  0.00  0.00    +0.000 A 
ATOM      5  N   UNL     1     -11.716  -2.770  15.403  0.00  0.00    +0.000 NA
ATOM      6  C   UNL     1     -11.994  -1.441  15.145  0.00  0.00    +0.000 A 
ATOM      7  C   UNL     1     -12.091  -0.630  16.251  0.00  0.00    +0.000 A 
ATOM      8  S   UNL     1     -11.836  -1.557  17.664  0.00  0.00    +0.000 S 
ATOM      9  N   UNL     1      -9.974  -5.034  15.520  0.00  0.00    +0.000 NA
ATOM     10  C   UNL     1      -9.232  -6.044  15.059  0.00  0.00    +0.000 A 
ATOM     11  N   UNL     1      -9.012  -7.170  15.726  0.00  0.00    +0.000 N 
ATOM     12  C   UNL     1      -9.565  -7.372  16.931  0.00  0.00    +0.000 A 
ATOM     13  H   UNL     1     -11.078  -4.050  18.304  0.00  0.00    +0.000 HD
ATOM     14  H   UNL     1     -12.118  -1.114  14.119  0.00  0.00    +0.000 HD
ATOM     15  H   UNL     1     -12.299   0.430  16.295  0.00  0.00    +0.000 HD
ATOM     16  H   UNL     1      -8.762  -5.929  14.090  0.00  0.00    +0.000 HD
ATOM     17  H   UNL     1      -8.423  -7.889  15.324  0.00  0.00    +0.000 HD
ENDROOT
BRANCH   1  18
ATOM     18  N   UNL     1     -10.921  -6.472  18.789  0.00  0.00    +0.000 N 
ATOM     19  H   UNL     1     -11.570  -5.715  19.023  0.00  0.00    +0.000 HD
ATOM     20  H   UNL     1     -11.271  -7.371  19.096  0.00  0.00    +0.000 HD
ENDBRANCH   1  18
BRANCH  12  21
ATOM     21  N   UNL     1      -9.245  -8.551  17.631  0.00  0.00    +0.000 N 
ATOM     22  H   UNL     1      -9.499  -8.513  18.617  0.00  0.00    +0.000 HD
BRANCH  21  23
ATOM     23  C   UNL     1      -9.241  -9.851  17.087  0.00  0.00    +0.000 A 
ATOM     24  C   UNL     1      -8.892 -10.953  17.886  0.00  0.00    +0.000 A 
ATOM     25  C   UNL     1      -8.695 -12.213  17.323  0.00  0.00    +0.000 A 
ATOM     26  C   UNL     1      -8.866 -12.386  15.953  0.00  0.00    +0.000 A 
ATOM     27 BR   UNL     1      -8.527 -14.072  15.177  0.00  0.00    +0.000 Br
ATOM     28  C   UNL     1      -9.268 -11.318  15.153  0.00  0.00    +0.000 A 
ATOM     29  C   UNL     1      -9.457 -10.052  15.720  0.00  0.00    +0.000 A 
ATOM     30  H   UNL     1      -8.784 -10.844  18.965  0.00  0.00    +0.000 HD
ATOM     31  H   UNL     1      -8.413 -13.051  17.956  0.00  0.00    +0.000 HD
ATOM     32  H   UNL     1      -9.424 -11.459  14.086  0.00  0.00    +0.000 HD
ATOM     33  H   UNL     1      -9.750  -9.232  15.067  0.00  0.00    +0.000 HD
ENDBRANCH  21  23
ENDBRANCH  12  21
TORSDOF 3
ENDMDL
MODEL 8
REMARK VINA RESULT:    -9.061      1.732      2.381
REMARK INTER + INTRA:         -10.058
REMARK INTER:                  -9.998
REMARK INTRA:                  -0.060
REMARK UNBOUND:                 0.327
REMARK  Name = 
REMARK  3 active torsions:
REMARK  status: ('A' for Active; 'I' for Inactive)
REMARK    1  A    between atoms: N_1  and  C_2
REMARK    2  A    between atoms: C_13  and  N_14
REMARK    3  A    between atoms: N_14  and  C_15
REMARK                            x       y       z     vdW  Elec       q    Type
REMARK                         _______ _______ _______ _____ _____    ______ ____
ROOT
ATOM      1  C   UNL     1      -8.632  -6.381  17.654  0.00  0.00    +0.000 A 
ATOM      2  C   UNL     1      -8.570  -5.474  18.736  0.00  0.00    +0.000 A 
ATOM      3  N   UNL     1      -7.340  -5.363  19.423  0.00  0.00    +0.000 N 
ATOM      4  C   UNL     1      -7.151  -4.610  20.534  0.00  0.00    +0.000 A 
ATOM      5  N   UNL     1      -8.048  -4.301  21.444  0.00  0.00    +0.000 NA
ATOM      6  C   UNL     1      -7.490  -3.502  22.423  0.00  0.00    +0.000 A 
ATOM      7  C   UNL     1      -6.153  -3.220  22.267  0.00  0.00    +0.000 A 
ATOM      8  S   UNL     1      -5.569  -3.984  20.854  0.00  0.00    +0.000 S 
ATOM      9  N   UNL     1      -9.635  -4.734  19.105  0.00  0.00    +0.000 NA
ATOM     10  C   UNL     1     -10.745  -4.848  18.371  0.00  0.00    +0.000 A 
ATOM     11  N   UNL     1     -10.853  -5.626  17.302  0.00  0.00    +0.000 N 
ATOM     12  C   UNL     1      -9.825  -6.387  16.901  0.00  0.00    +0.000 A 
ATOM     13  H   UNL     1      -6.562  -5.354  18.771  0.00  0.00    +0.000 HD
ATOM     14  H   UNL     1      -8.110  -3.149  23.239  0.00  0.00    +0.000 HD
ATOM     15  H   UNL     1      -5.510  -2.624  22.899  0.00  0.00    +0.000 HD
ATOM     16  H   UNL     1     -11.604  -4.251  18.654  0.00  0.00    +0.000 HD
ATOM     17  H   UNL     1     -11.721  -5.651  16.780  0.00  0.00    +0.000 HD
ENDROOT
BRANCH   1  18
ATOM     18  N   UNL     1      -7.466  -7.051  17.213  0.00  0.00    +0.000 N 
ATOM     19  H   UNL     1      -7.603  -8.058  17.088  0.00  0.00    +0.000 HD
ATOM     20  H   UNL     1      -6.961  -6.645  16.435  0.00  0.00    +0.000 HD
ENDBRANCH   1  18
BRANCH  12  21
ATOM     21  N   UNL     1      -9.963  -7.142  15.720  0.00  0.00    +0.000 N 
ATOM     22  H   UNL     1      -9.753  -6.608  14.877  0.00  0.00    +0.000 HD
BRANCH  21  23
ATOM     23  C   UNL     1      -9.728  -8.525  15.600  0.00  0.00    +0.000 A 
ATOM     24  C   UNL     1     -10.185  -9.411  16.590  0.00  0.00    +0.000 A 
ATOM     25  C   UNL     1      -9.797 -10.750  16.589  0.00  0.00    +0.000 A 
ATOM     26  C   UNL     1      -8.960 -11.220  15.581  0.00  0.00    +0.000 A 
ATOM     27 BR   UNL     1      -8.373 -13.014  15.620  0.00  0.00    +0.000 Br
ATOM     28  C   UNL     1      -8.543 -10.370  14.559  0.00  0.00    +0.000 A 
ATOM     29  C   UNL     1      -8.927  -9.025  14.568  0.00  0.00    +0.000 A 
ATOM     30  H   UNL     1     -10.866  -9.069  17.369  0.00  0.00    +0.000 HD
ATOM     31  H   UNL     1     -10.152 -11.417  17.371  0.00  0.00    +0.000 HD
ATOM     32  H   UNL     1      -7.907 -10.745  13.759  0.00  0.00    +0.000 HD
ATOM     33  H   UNL     1      -8.568  -8.380  13.768  0.00  0.00    +0.000 HD
ENDBRANCH  21  23
ENDBRANCH  12  21
TORSDOF 3
ENDMDL
MODEL 9
REMARK VINA RESULT:    -9.024      3.048      3.350
REMARK INTER + INTRA:         -10.016
REMARK INTER:                 -10.363
REMARK INTRA:                   0.347
REMARK UNBOUND:                 0.327
REMARK  Name = 
REMARK  3 active torsions:
REMARK  status: ('A' for Active; 'I' for Inactive)
REMARK    1  A    between atoms: N_1  and  C_2
REMARK    2  A    between atoms: C_13  and  N_14
REMARK    3  A    between atoms: N_14  and  C_15
REMARK                            x       y       z     vdW  Elec       q    Type
REMARK                         _______ _______ _______ _____ _____    ______ ____
ROOT
ATOM      1  C   UNL     1      -9.735  -6.233  16.037  0.00  0.00    +0.000 A 
ATOM      2  C   UNL     1     -10.274  -5.151  16.770  0.00  0.00    +0.000 A 
ATOM      3  N   UNL     1     -10.222  -3.871  16.174  0.00  0.00    +0.000 N 
ATOM      4  C   UNL     1     -10.611  -2.726  16.788  0.00  0.00    +0.000 A 
ATOM      5  N   UNL     1     -10.593  -2.473  18.078  0.00  0.00    +0.000 NA
ATOM      6  C   UNL     1     -11.081  -1.205  18.329  0.00  0.00    +0.000 A 
ATOM      7  C   UNL     1     -11.452  -0.482  17.220  0.00  0.00    +0.000 A 
ATOM      8  S   UNL     1     -11.175  -1.412  15.812  0.00  0.00    +0.000 S 
ATOM      9  N   UNL     1     -10.823  -5.322  17.989  0.00  0.00    +0.000 NA
ATOM     10  C   UNL     1     -10.891  -6.569  18.462  0.00  0.00    +0.000 A 
ATOM     11  N   UNL     1     -10.469  -7.639  17.800  0.00  0.00    +0.000 N 
ATOM     12  C   UNL     1      -9.907  -7.519  16.589  0.00  0.00    +0.000 A 
ATOM     13  H   UNL     1     -10.460  -3.921  15.188  0.00  0.00    +0.000 HD
ATOM     14  H   UNL     1     -11.145  -0.853  19.352  0.00  0.00    +0.000 HD
ATOM     15  H   UNL     1     -11.855   0.520  17.170  0.00  0.00    +0.000 HD
ATOM     16  H   UNL     1     -11.339  -6.719  19.437  0.00  0.00    +0.000 HD
ATOM     17  H   UNL     1     -10.567  -8.559  18.212  0.00  0.00    +0.000 HD
ENDROOT
BRANCH   1  18
ATOM     18  N   UNL     1      -9.278  -6.043  14.711  0.00  0.00    +0.000 N 
ATOM     19  H   UNL     1      -8.559  -5.318  14.632  0.00  0.00    +0.000 HD
ATOM     20  H   UNL     1      -9.033  -6.869  14.180  0.00  0.00    +0.000 HD
ENDBRANCH   1  18
BRANCH  12  21
ATOM     21  N   UNL     1      -9.541  -8.689  15.896  0.00  0.00    +0.000 N 
ATOM     22  H   UNL     1      -9.097  -8.499  14.998  0.00  0.00    +0.000 HD
BRANCH  21  23
ATOM     23  C   UNL     1      -9.143  -9.902  16.491  0.00  0.00    +0.000 A 
ATOM     24  C   UNL     1      -9.157 -11.095  15.747  0.00  0.00    +0.000 A 
ATOM     25  C   UNL     1      -8.955 -12.327  16.365  0.00  0.00    +0.000 A 
ATOM     26  C   UNL     1      -8.717 -12.376  17.736  0.00  0.00    +0.000 A 
ATOM     27 BR   UNL     1      -8.518 -14.048  18.588  0.00  0.00    +0.000 Br
ATOM     28  C   UNL     1      -8.643 -11.200  18.480  0.00  0.00    +0.000 A 
ATOM     29  C   UNL     1      -8.854  -9.964  17.858  0.00  0.00    +0.000 A 
ATOM     30  H   UNL     1      -9.310 -11.074  14.669  0.00  0.00    +0.000 HD
ATOM     31  H   UNL     1      -8.982 -13.240  15.775  0.00  0.00    +0.000 HD
ATOM     32  H   UNL     1      -8.433 -11.238  19.547  0.00  0.00    +0.000 HD
ATOM     33  H   UNL     1      -8.811  -9.064  18.469  0.00  0.00    +0.000 HD
ENDBRANCH  21  23
ENDBRANCH  12  21
TORSDOF 3
ENDMDL
