REMARK  Name = 
REMARK  10 active torsions:
REMARK  status: ('A' for Active; 'I' for Inactive)
REMARK    1  A    between atoms: C_1  and  O_2
REMARK    2  A    between atoms: O_2  and  C_3
REMARK    3  A    between atoms: C_6  and  C_7
REMARK    4  A    between atoms: C_7  and  C_8
REMARK    5  A    between atoms: C_8  and  N_9
REMARK    6  A    between atoms: N_9  and  C_10
REMARK    7  A    between atoms: N_15  and  C_16
REMARK    8  A    between atoms: C_21  and  N_22
REMARK    9  A    between atoms: C_24  and  O_25
REMARK   10  A    between atoms: O_25  and  C_26
REMARK                            x       y       z     vdW  Elec       q    Type
REMARK                         _______ _______ _______ _____ _____    ______ ____
ROOT
ATOM      1  N   UNL     1       1.192   0.364   0.620  0.00  0.00    +0.000 N 
ATOM      2  H   UNL     1       1.509   0.230   1.579  0.00  0.00    +0.000 HD
ENDROOT
BRANCH   1   3
ATOM      3  C   UNL     1       0.651  -0.846   0.137  0.00  0.00    +0.000 A 
ATOM      4  N   UNL     1      -0.569  -0.845  -0.426  0.00  0.00    +0.000 NA
ATOM      5  C   UNL     1      -1.022  -2.022  -0.868  0.00  0.00    +0.000 A 
ATOM      6  N   UNL     1      -0.338  -3.157  -0.841  0.00  0.00    +0.000 N 
ATOM      7  C   UNL     1       0.898  -3.207  -0.338  0.00  0.00    +0.000 A 
ATOM      8  N   UNL     1       1.608  -4.397  -0.340  0.00  0.00    +0.000 N 
ATOM      9  C   UNL     1       1.443  -2.016   0.206  0.00  0.00    +0.000 A 
ATOM     10  H   UNL     1      -2.025  -2.047  -1.287  0.00  0.00    +0.000 HD
ATOM     11  H   UNL     1      -0.765  -3.994  -1.201  0.00  0.00    +0.000 HD
ATOM     12  H   UNL     1       2.565  -4.280  -0.674  0.00  0.00    +0.000 HD
BRANCH   8  13
ATOM     13  C   UNL     1       1.053  -5.731  -0.561  0.00  0.00    +0.000 C 
ATOM     14  C   UNL     1       2.096  -6.780  -0.169  0.00  0.00    +0.000 C 
ATOM     15  C   UNL     1       1.901  -7.972  -1.097  0.00  0.00    +0.000 C 
ATOM     16  C   UNL     1       0.914  -7.543  -2.172  0.00  0.00    +0.000 C 
ATOM     17  C   UNL     1       0.738  -6.036  -2.023  0.00  0.00    +0.000 C 
ATOM     18  H   UNL     1       0.156  -5.871   0.054  0.00  0.00    +0.000 HD
ATOM     19  H   UNL     1       1.979  -7.071   0.881  0.00  0.00    +0.000 HD
ATOM     20  H   UNL     1       3.120  -6.401  -0.277  0.00  0.00    +0.000 HD
ATOM     21  H   UNL     1       1.520  -8.840  -0.547  0.00  0.00    +0.000 HD
ATOM     22  H   UNL     1       2.858  -8.268  -1.541  0.00  0.00    +0.000 HD
ATOM     23  H   UNL     1      -0.042  -8.059  -2.024  0.00  0.00    +0.000 HD
ATOM     24  H   UNL     1       1.270  -7.807  -3.174  0.00  0.00    +0.000 HD
ATOM     25  H   UNL     1      -0.290  -5.758  -2.283  0.00  0.00    +0.000 HD
ATOM     26  H   UNL     1       1.403  -5.502  -2.710  0.00  0.00    +0.000 HD
ENDBRANCH   8  13
BRANCH   9  27
ATOM     27  N   UNL     1       2.613  -2.038   1.002  0.00  0.00    +0.000 N 
ATOM     28  H   UNL     1       3.264  -2.798   0.834  0.00  0.00    +0.000 HD
ATOM     29  H   UNL     1       3.069  -1.130   1.082  0.00  0.00    +0.000 HD
ENDBRANCH   9  27
ENDBRANCH   1   3
BRANCH   1  30
ATOM     30  C   UNL     1       0.288   1.521   0.500  0.00  0.00    +0.000 C 
ATOM     31  H   UNL     1      -0.024   1.649  -0.546  0.00  0.00    +0.000 HD
ATOM     32  H   UNL     1      -0.610   1.345   1.103  0.00  0.00    +0.000 HD
BRANCH  30  33
ATOM     33  C   UNL     1       0.988   2.807   0.958  0.00  0.00    +0.000 C 
ATOM     34  H   UNL     1       1.329   2.707   1.996  0.00  0.00    +0.000 HD
ATOM     35  H   UNL     1       1.894   2.956   0.355  0.00  0.00    +0.000 HD
BRANCH  33  39
ATOM     36  C   UNL     1      -1.563   6.316   0.706  0.00  0.00    +0.000 A 
ATOM     37  C   UNL     1      -0.375   6.233  -0.033  0.00  0.00    +0.000 A 
ATOM     38  C   UNL     1       0.441   5.097   0.034  0.00  0.00    +0.000 A 
ATOM     39  C   UNL     1       0.096   4.022   0.856  0.00  0.00    +0.000 A 
ATOM     40  C   UNL     1      -1.084   4.113   1.605  0.00  0.00    +0.000 A 
ATOM     41  C   UNL     1      -1.925   5.233   1.522  0.00  0.00    +0.000 A 
ATOM     42  H   UNL     1      -0.035   7.057  -0.652  0.00  0.00    +0.000 HD
ATOM     43  H   UNL     1       1.360   5.078  -0.548  0.00  0.00    +0.000 HD
ATOM     44  H   UNL     1      -1.374   3.304   2.274  0.00  0.00    +0.000 HD
BRANCH  36  45
ATOM     45  O   UNL     1      -2.349   7.436   0.732  0.00  0.00    +0.000 OA
BRANCH  45  46
ATOM     46  C   UNL     1      -2.245   8.335  -0.365  0.00  0.00    +0.000 C 
ATOM     47  H   UNL     1      -3.010   9.107  -0.236  0.00  0.00    +0.000 HD
ATOM     48  H   UNL     1      -2.443   7.821  -1.311  0.00  0.00    +0.000 HD
ATOM     49  H   UNL     1      -1.274   8.839  -0.381  0.00  0.00    +0.000 HD
ENDBRANCH  45  46
ENDBRANCH  36  45
BRANCH  41  50
ATOM     50  O   UNL     1      -3.034   5.131   2.324  0.00  0.00    +0.000 OA
BRANCH  50  51
ATOM     51  C   UNL     1      -4.207   5.808   1.885  0.00  0.00    +0.000 C 
ATOM     52  H   UNL     1      -5.061   5.354   2.399  0.00  0.00    +0.000 HD
ATOM     53  H   UNL     1      -4.373   5.688   0.809  0.00  0.00    +0.000 HD
ATOM     54  H   UNL     1      -4.182   6.862   2.175  0.00  0.00    +0.000 HD
ENDBRANCH  50  51
ENDBRANCH  41  50
ENDBRANCH  33  39
ENDBRANCH  30  33
ENDBRANCH   1  30
TORSDOF 10
