REMARK  Name = 
REMARK  6 active torsions:
REMARK  status: ('A' for Active; 'I' for Inactive)
REMARK    1  A    between atoms: C_1  and  C_2
REMARK    2  A    between atoms: N_5  and  C_6
REMARK    3  A    between atoms: N_11  and  C_12
REMARK    4  A    between atoms: C_12  and  C_13
REMARK    5  A    between atoms: C_12  and  C_14
REMARK    6  A    between atoms: C_20  and  N_21
REMARK                            x       y       z     vdW  Elec       q    Type
REMARK                         _______ _______ _______ _____ _____    ______ ____
ROOT
ATOM      1  C   UNL     1      -0.370   1.298  -1.419  0.00  0.00    +0.000 A 
ATOM      2  N   UNL     1      -0.974   0.495  -2.302  0.00  0.00    +0.000 N 
ATOM      3  C   UNL     1      -1.063  -0.810  -2.080  0.00  0.00    +0.000 A 
ATOM      4  N   UNL     1      -0.598  -1.425  -0.982  0.00  0.00    +0.000 NA
ATOM      5  C   UNL     1       0.014  -0.654  -0.066  0.00  0.00    +0.000 A 
ATOM      6  N   UNL     1       0.515  -1.227   1.113  0.00  0.00    +0.000 N 
ATOM      7  C   UNL     1       0.137   0.743  -0.229  0.00  0.00    +0.000 A 
ATOM      8  H   UNL     1      -1.342   0.916  -3.159  0.00  0.00    +0.000 HD
ATOM      9  H   UNL     1      -1.530  -1.420  -2.846  0.00  0.00    +0.000 HD
ATOM     10  H   UNL     1       1.529  -1.148   1.151  0.00  0.00    +0.000 HD
ENDROOT
BRANCH   1  14
ATOM     11  C   UNL     1      -0.400   4.686  -4.556  0.00  0.00    +0.000 A 
ATOM     12  C   UNL     1      -0.064   4.546  -3.231  0.00  0.00    +0.000 A 
ATOM     13  C   UNL     1      -0.499   3.251  -2.894  0.00  0.00    +0.000 A 
ATOM     14  N   UNL     1      -0.260   2.673  -1.695  0.00  0.00    +0.000 N 
ATOM     15  N   UNL     1      -1.107   2.654  -3.931  0.00  0.00    +0.000 NA
ATOM     16  O   UNL     1      -1.038   3.560  -4.975  0.00  0.00    +0.000 OA
ATOM     17  H   UNL     1       0.457   5.273  -2.619  0.00  0.00    +0.000 HD
ATOM     18  H   UNL     1       0.374   3.135  -1.044  0.00  0.00    +0.000 HD
BRANCH  11  19
ATOM     19  C   UNL     1      -0.185   5.743  -5.563  0.00  0.00    +0.000 C 
ATOM     20  H   UNL     1       0.170   6.665  -5.089  0.00  0.00    +0.000 HD
ATOM     21  H   UNL     1      -1.111   5.967  -6.098  0.00  0.00    +0.000 HD
ATOM     22  H   UNL     1       0.570   5.421  -6.287  0.00  0.00    +0.000 HD
ENDBRANCH  11  19
ENDBRANCH   1  14
BRANCH   7  23
ATOM     23  N   UNL     1       0.857   1.534   0.706  0.00  0.00    +0.000 N 
ATOM     24  H   UNL     1       1.053   0.985   1.550  0.00  0.00    +0.000 HD
ATOM     25  H   UNL     1       0.373   2.386   0.983  0.00  0.00    +0.000 HD
ENDBRANCH   7  23
BRANCH   6  26
ATOM     26  C   UNL     1       0.040  -2.577   1.458  0.00  0.00    +0.000 C 
ATOM     27  H   UNL     1      -1.013  -2.668   1.158  0.00  0.00    +0.000 HD
BRANCH  26  28
ATOM     28  C   UNL     1       0.082  -2.791   2.967  0.00  0.00    +0.000 A 
ATOM     29  C   UNL     1      -0.896  -3.608   3.566  0.00  0.00    +0.000 A 
ATOM     30  C   UNL     1      -0.860  -3.889   4.932  0.00  0.00    +0.000 A 
ATOM     31  C   UNL     1       0.154  -3.358   5.725  0.00  0.00    +0.000 A 
ATOM     32  C   UNL     1       1.133  -2.550   5.152  0.00  0.00    +0.000 A 
ATOM     33  C   UNL     1       1.102  -2.272   3.782  0.00  0.00    +0.000 A 
ATOM     34  H   UNL     1      -1.690  -4.048   2.965  0.00  0.00    +0.000 HD
ATOM     35  H   UNL     1      -1.617  -4.531   5.377  0.00  0.00    +0.000 HD
ATOM     36  H   UNL     1       0.186  -3.583   6.788  0.00  0.00    +0.000 HD
ATOM     37  H   UNL     1       1.930  -2.148   5.772  0.00  0.00    +0.000 HD
ATOM     38  H   UNL     1       1.893  -1.657   3.365  0.00  0.00    +0.000 HD
ENDBRANCH  26  28
BRANCH  26  39
ATOM     39  C   UNL     1       0.856  -3.672   0.770  0.00  0.00    +0.000 C 
ATOM     40  H   UNL     1       1.882  -3.716   1.151  0.00  0.00    +0.000 HD
ATOM     41  H   UNL     1       0.911  -3.527  -0.313  0.00  0.00    +0.000 HD
ATOM     42  H   UNL     1       0.400  -4.654   0.947  0.00  0.00    +0.000 HD
ENDBRANCH  26  39
ENDBRANCH   6  26
TORSDOF 6
