MODEL 1
REMARK VINA RESULT:   -10.366      0.000      0.000
REMARK INTER + INTRA:         -11.587
REMARK INTER:                 -11.275
REMARK INTRA:                  -0.312
REMARK UNBOUND:                -0.312
REMARK  Name = 
REMARK  2 active torsions:
REMARK  status: ('A' for Active; 'I' for Inactive)
REMARK    1  A    between atoms: N_1  and  C_2
REMARK    2  A    between atoms: C_15  and  N_16
REMARK                            x       y       z     vdW  Elec       q    Type
REMARK                         _______ _______ _______ _____ _____    ______ ____
ROOT
ATOM      1  C   UNL     1      -8.839  -7.096  18.285  0.00  0.00    +0.000 A 
ATOM      2  C   UNL     1      -9.101  -8.483  18.197  0.00  0.00    +0.000 A 
ATOM      3  N   UNL     1      -9.435  -9.007  16.933  0.00  0.00    +0.000 N 
ATOM      4  C   UNL     1      -9.320 -10.326  16.491  0.00  0.00    +0.000 A 
ATOM      5  C   UNL     1      -9.463 -11.438  17.311  0.00  0.00    +0.000 A 
ATOM      6  C   UNL     1      -9.167 -12.699  16.808  0.00  0.00    +0.000 A 
ATOM      7  C   UNL     1      -8.793 -12.828  15.480  0.00  0.00    +0.000 A 
ATOM      8 BR   UNL     1      -8.325 -14.502  14.763  0.00  0.00    +0.000 Br
ATOM      9  C   UNL     1      -8.760 -11.682  14.699  0.00  0.00    +0.000 A 
ATOM     10  N   UNL     1      -9.008 -10.440  15.183  0.00  0.00    +0.000 NA
ATOM     11  N   UNL     1      -9.101  -9.279  19.285  0.00  0.00    +0.000 NA
ATOM     12  C   UNL     1      -8.804  -8.717  20.457  0.00  0.00    +0.000 A 
ATOM     13  N   UNL     1      -8.552  -7.422  20.616  0.00  0.00    +0.000 N 
ATOM     14  C   UNL     1      -8.579  -6.584  19.577  0.00  0.00    +0.000 A 
ATOM     15  H   UNL     1      -9.085  -8.447  16.159  0.00  0.00    +0.000 HD
ATOM     16  H   UNL     1      -9.765 -11.348  18.346  0.00  0.00    +0.000 HD
ATOM     17  H   UNL     1      -9.204 -13.567  17.463  0.00  0.00    +0.000 HD
ATOM     18  H   UNL     1      -8.514 -11.723  13.645  0.00  0.00    +0.000 HD
ATOM     19  H   UNL     1      -8.776  -9.353  21.335  0.00  0.00    +0.000 HD
ATOM     20  H   UNL     1      -8.348  -7.044  21.536  0.00  0.00    +0.000 HD
ENDROOT
BRANCH  14  21
ATOM     21  N   UNL     1      -8.358  -5.243  19.901  0.00  0.00    +0.000 N 
ATOM     22  C   UNL     1      -7.111  -4.710  20.281  0.00  0.00    +0.000 A 
ATOM     23  C   UNL     1      -5.908  -5.122  19.712  0.00  0.00    +0.000 A 
ATOM     24  C   UNL     1      -4.718  -4.730  20.316  0.00  0.00    +0.000 A 
ATOM     25  C   UNL     1      -4.760  -3.863  21.399  0.00  0.00    +0.000 A 
ATOM     26  C   UNL     1      -5.997  -3.427  21.837  0.00  0.00    +0.000 A 
ATOM     27  N   UNL     1      -7.168  -3.857  21.314  0.00  0.00    +0.000 NA
ATOM     28  H   UNL     1      -8.935  -4.931  20.689  0.00  0.00    +0.000 HD
ATOM     29  H   UNL     1      -5.877  -5.810  18.873  0.00  0.00    +0.000 HD
ATOM     30  H   UNL     1      -3.765  -5.108  19.953  0.00  0.00    +0.000 HD
ATOM     31  H   UNL     1      -3.852  -3.532  21.891  0.00  0.00    +0.000 HD
ATOM     32  H   UNL     1      -6.084  -2.713  22.652  0.00  0.00    +0.000 HD
ENDBRANCH  14  21
BRANCH   1  33
ATOM     33  N   UNL     1      -8.692  -6.336  17.102  0.00  0.00    +0.000 N 
ATOM     34  H   UNL     1      -9.514  -5.793  16.840  0.00  0.00    +0.000 HD
ATOM     35  H   UNL     1      -7.845  -5.782  16.990  0.00  0.00    +0.000 HD
ENDBRANCH   1  33
TORSDOF 2
ENDMDL
MODEL 2
REMARK VINA RESULT:    -9.773      1.092      1.353
REMARK INTER + INTRA:         -10.942
REMARK INTER:                 -11.227
REMARK INTRA:                   0.285
REMARK UNBOUND:                -0.312
REMARK  Name = 
REMARK  2 active torsions:
REMARK  status: ('A' for Active; 'I' for Inactive)
REMARK    1  A    between atoms: N_1  and  C_2
REMARK    2  A    between atoms: C_15  and  N_16
REMARK                            x       y       z     vdW  Elec       q    Type
REMARK                         _______ _______ _______ _____ _____    ______ ____
ROOT
ATOM      1  C   UNL     1      -9.141  -6.313  17.959  0.00  0.00    +0.000 A 
ATOM      2  C   UNL     1      -9.267  -7.719  18.026  0.00  0.00    +0.000 A 
ATOM      3  N   UNL     1      -9.724  -8.393  16.877  0.00  0.00    +0.000 N 
ATOM      4  C   UNL     1      -9.538  -9.732  16.532  0.00  0.00    +0.000 A 
ATOM      5  C   UNL     1      -9.445 -10.767  17.454  0.00  0.00    +0.000 A 
ATOM      6  C   UNL     1      -9.095 -12.039  17.017  0.00  0.00    +0.000 A 
ATOM      7  C   UNL     1      -8.906 -12.262  15.662  0.00  0.00    +0.000 A 
ATOM      8 BR   UNL     1      -8.376 -13.949  15.023  0.00  0.00    +0.000 Br
ATOM      9  C   UNL     1      -9.106 -11.200  14.794  0.00  0.00    +0.000 A 
ATOM     10  N   UNL     1      -9.409  -9.944  15.206  0.00  0.00    +0.000 NA
ATOM     11  N   UNL     1      -9.027  -8.403  19.164  0.00  0.00    +0.000 NA
ATOM     12  C   UNL     1      -8.623  -7.705  20.225  0.00  0.00    +0.000 A 
ATOM     13  N   UNL     1      -8.487  -6.383  20.237  0.00  0.00    +0.000 N 
ATOM     14  C   UNL     1      -8.751  -5.656  19.148  0.00  0.00    +0.000 A 
ATOM     15  H   UNL     1      -9.551  -7.881  16.015  0.00  0.00    +0.000 HD
ATOM     16  H   UNL     1      -9.601 -10.605  18.512  0.00  0.00    +0.000 HD
ATOM     17  H   UNL     1      -8.946 -12.839  17.739  0.00  0.00    +0.000 HD
ATOM     18  H   UNL     1      -9.013 -11.320  13.721  0.00  0.00    +0.000 HD
ATOM     19  H   UNL     1      -8.402  -8.248  21.138  0.00  0.00    +0.000 HD
ATOM     20  H   UNL     1      -8.191  -5.900  21.080  0.00  0.00    +0.000 HD
ENDROOT
BRANCH  14  21
ATOM     21  N   UNL     1      -8.626  -4.276  19.323  0.00  0.00    +0.000 N 
ATOM     22  C   UNL     1      -7.928  -3.667  20.384  0.00  0.00    +0.000 A 
ATOM     23  C   UNL     1      -6.742  -4.180  20.903  0.00  0.00    +0.000 A 
ATOM     24  C   UNL     1      -6.261  -3.663  22.100  0.00  0.00    +0.000 A 
ATOM     25  C   UNL     1      -6.915  -2.588  22.687  0.00  0.00    +0.000 A 
ATOM     26  C   UNL     1      -8.030  -2.077  22.049  0.00  0.00    +0.000 A 
ATOM     27  N   UNL     1      -8.560  -2.615  20.928  0.00  0.00    +0.000 NA
ATOM     28  H   UNL     1      -9.534  -3.808  19.412  0.00  0.00    +0.000 HD
ATOM     29  H   UNL     1      -6.239  -5.029  20.450  0.00  0.00    +0.000 HD
ATOM     30  H   UNL     1      -5.389  -4.102  22.581  0.00  0.00    +0.000 HD
ATOM     31  H   UNL     1      -6.564  -2.155  23.618  0.00  0.00    +0.000 HD
ATOM     32  H   UNL     1      -8.553  -1.209  22.442  0.00  0.00    +0.000 HD
ENDBRANCH  14  21
BRANCH   1  33
ATOM     33  N   UNL     1      -9.247  -5.662  16.708  0.00  0.00    +0.000 N 
ATOM     34  H   UNL     1      -8.354  -5.405  16.286  0.00  0.00    +0.000 HD
ATOM     35  H   UNL     1      -9.872  -6.060  16.011  0.00  0.00    +0.000 HD
ENDBRANCH   1  33
TORSDOF 2
ENDMDL
MODEL 3
REMARK VINA RESULT:    -9.528      3.690      8.150
REMARK INTER + INTRA:         -10.676
REMARK INTER:                 -11.189
REMARK INTRA:                   0.513
REMARK UNBOUND:                -0.312
REMARK  Name = 
REMARK  2 active torsions:
REMARK  status: ('A' for Active; 'I' for Inactive)
REMARK    1  A    between atoms: N_1  and  C_2
REMARK    2  A    between atoms: C_15  and  N_16
REMARK                            x       y       z     vdW  Elec       q    Type
REMARK                         _______ _______ _______ _____ _____    ______ ____
ROOT
ATOM      1  C   UNL     1      -9.355  -7.045  17.831  0.00  0.00    +0.000 A 
ATOM      2  C   UNL     1      -8.736  -6.403  18.927  0.00  0.00    +0.000 A 
ATOM      3  N   UNL     1      -8.536  -5.011  18.844  0.00  0.00    +0.000 N 
ATOM      4  C   UNL     1      -8.363  -4.103  19.889  0.00  0.00    +0.000 A 
ATOM      5  C   UNL     1      -7.743  -4.411  21.094  0.00  0.00    +0.000 A 
ATOM      6  C   UNL     1      -7.767  -3.485  22.129  0.00  0.00    +0.000 A 
ATOM      7  C   UNL     1      -8.356  -2.248  21.918  0.00  0.00    +0.000 A 
ATOM      8 BR   UNL     1      -8.469  -0.980  23.302  0.00  0.00    +0.000 Br
ATOM      9  C   UNL     1      -8.874  -1.980  20.660  0.00  0.00    +0.000 A 
ATOM     10  N   UNL     1      -8.893  -2.885  19.651  0.00  0.00    +0.000 NA
ATOM     11  N   UNL     1      -8.285  -7.092  19.995  0.00  0.00    +0.000 NA
ATOM     12  C   UNL     1      -8.480  -8.411  20.001  0.00  0.00    +0.000 A 
ATOM     13  N   UNL     1      -9.049  -9.081  19.006  0.00  0.00    +0.000 N 
ATOM     14  C   UNL     1      -9.477  -8.452  17.909  0.00  0.00    +0.000 A 
ATOM     15  H   UNL     1      -9.183  -4.549  18.209  0.00  0.00    +0.000 HD
ATOM     16  H   UNL     1      -7.272  -5.370  21.264  0.00  0.00    +0.000 HD
ATOM     17  H   UNL     1      -7.352  -3.744  23.101  0.00  0.00    +0.000 HD
ATOM     18  H   UNL     1      -9.310  -1.017  20.421  0.00  0.00    +0.000 HD
ATOM     19  H   UNL     1      -8.144  -8.971  20.867  0.00  0.00    +0.000 HD
ATOM     20  H   UNL     1      -9.158 -10.090  19.056  0.00  0.00    +0.000 HD
ENDROOT
BRANCH  14  21
ATOM     21  N   UNL     1      -9.996  -9.289  16.919  0.00  0.00    +0.000 N 
ATOM     22  C   UNL     1      -9.536 -10.595  16.657  0.00  0.00    +0.000 A 
ATOM     23  C   UNL     1      -9.135 -11.471  17.663  0.00  0.00    +0.000 A 
ATOM     24  C   UNL     1      -8.466 -12.635  17.303  0.00  0.00    +0.000 A 
ATOM     25  C   UNL     1      -8.308 -12.939  15.957  0.00  0.00    +0.000 A 
ATOM     26  C   UNL     1      -8.825 -12.058  15.026  0.00  0.00    +0.000 A 
ATOM     27  N   UNL     1      -9.409 -10.883  15.353  0.00  0.00    +0.000 NA
ATOM     28  H   UNL     1      -9.921  -8.880  15.981  0.00  0.00    +0.000 HD
ATOM     29  H   UNL     1      -9.248 -11.226  18.715  0.00  0.00    +0.000 HD
ATOM     30  H   UNL     1      -8.058 -13.295  18.065  0.00  0.00    +0.000 HD
ATOM     31  H   UNL     1      -7.796 -13.841  15.640  0.00  0.00    +0.000 HD
ATOM     32  H   UNL     1      -8.768 -12.269  13.961  0.00  0.00    +0.000 HD
ENDBRANCH  14  21
BRANCH   1  33
ATOM     33  N   UNL     1      -9.954  -6.268  16.813  0.00  0.00    +0.000 N 
ATOM     34  H   UNL     1     -10.334  -5.375  17.127  0.00  0.00    +0.000 HD
ATOM     35  H   UNL     1      -9.448  -6.153  15.936  0.00  0.00    +0.000 HD
ENDBRANCH   1  33
TORSDOF 2
ENDMDL
MODEL 4
REMARK VINA RESULT:    -9.322      4.288      8.391
REMARK INTER + INTRA:         -10.452
REMARK INTER:                 -10.587
REMARK INTRA:                   0.135
REMARK UNBOUND:                -0.312
REMARK  Name = 
REMARK  2 active torsions:
REMARK  status: ('A' for Active; 'I' for Inactive)
REMARK    1  A    between atoms: N_1  and  C_2
REMARK    2  A    between atoms: C_15  and  N_16
REMARK                            x       y       z     vdW  Elec       q    Type
REMARK                         _______ _______ _______ _____ _____    ______ ____
ROOT
ATOM      1  C   UNL     1     -10.504  -6.239  17.061  0.00  0.00    +0.000 A 
ATOM      2  C   UNL     1      -9.866  -5.285  17.887  0.00  0.00    +0.000 A 
ATOM      3  N   UNL     1     -10.545  -4.079  18.142  0.00  0.00    +0.000 N 
ATOM      4  C   UNL     1     -10.364  -3.198  19.209  0.00  0.00    +0.000 A 
ATOM      5  C   UNL     1      -9.146  -2.981  19.842  0.00  0.00    +0.000 A 
ATOM      6  C   UNL     1      -9.106  -2.210  20.996  0.00  0.00    +0.000 A 
ATOM      7  C   UNL     1     -10.272  -1.621  21.459  0.00  0.00    +0.000 A 
ATOM      8 BR   UNL     1     -10.285  -0.616  23.048  0.00  0.00    +0.000 Br
ATOM      9  C   UNL     1     -11.432  -1.809  20.723  0.00  0.00    +0.000 A 
ATOM     10  N   UNL     1     -11.497  -2.589  19.617  0.00  0.00    +0.000 NA
ATOM     11  N   UNL     1      -8.621  -5.480  18.368  0.00  0.00    +0.000 NA
ATOM     12  C   UNL     1      -8.019  -6.631  18.069  0.00  0.00    +0.000 A 
ATOM     13  N   UNL     1      -8.556  -7.569  17.296  0.00  0.00    +0.000 N 
ATOM     14  C   UNL     1      -9.769  -7.409  16.761  0.00  0.00    +0.000 A 
ATOM     15  H   UNL     1     -11.555  -4.158  18.045  0.00  0.00    +0.000 HD
ATOM     16  H   UNL     1      -8.229  -3.428  19.482  0.00  0.00    +0.000 HD
ATOM     17  H   UNL     1      -8.171  -2.096  21.542  0.00  0.00    +0.000 HD
ATOM     18  H   UNL     1     -12.366  -1.342  21.011  0.00  0.00    +0.000 HD
ATOM     19  H   UNL     1      -7.028  -6.808  18.472  0.00  0.00    +0.000 HD
ATOM     20  H   UNL     1      -8.045  -8.422  17.086  0.00  0.00    +0.000 HD
ENDROOT
BRANCH  14  21
ATOM     21  N   UNL     1     -10.180  -8.445  15.920  0.00  0.00    +0.000 N 
ATOM     22  C   UNL     1      -9.754  -9.783  16.038  0.00  0.00    +0.000 A 
ATOM     23  C   UNL     1      -9.552 -10.407  17.267  0.00  0.00    +0.000 A 
ATOM     24  C   UNL     1      -8.898 -11.633  17.290  0.00  0.00    +0.000 A 
ATOM     25  C   UNL     1      -8.559 -12.245  16.091  0.00  0.00    +0.000 A 
ATOM     26  C   UNL     1      -8.887 -11.598  14.914  0.00  0.00    +0.000 A 
ATOM     27  N   UNL     1      -9.452 -10.370  14.870  0.00  0.00    +0.000 NA
ATOM     28  H   UNL     1      -9.947  -8.268  14.937  0.00  0.00    +0.000 HD
ATOM     29  H   UNL     1      -9.805  -9.922  18.204  0.00  0.00    +0.000 HD
ATOM     30  H   UNL     1      -8.641 -12.104  18.236  0.00  0.00    +0.000 HD
ATOM     31  H   UNL     1      -8.053 -13.205  16.072  0.00  0.00    +0.000 HD
ATOM     32  H   UNL     1      -8.685 -12.053  13.948  0.00  0.00    +0.000 HD
ENDBRANCH  14  21
BRANCH   1  33
ATOM     33  N   UNL     1     -11.864  -6.064  16.715  0.00  0.00    +0.000 N 
ATOM     34  H   UNL     1     -12.442  -6.897  16.825  0.00  0.00    +0.000 HD
ATOM     35  H   UNL     1     -12.348  -5.242  17.072  0.00  0.00    +0.000 HD
ENDBRANCH   1  33
TORSDOF 2
ENDMDL
MODEL 5
REMARK VINA RESULT:    -9.231      4.113      8.433
REMARK INTER + INTRA:         -10.353
REMARK INTER:                 -10.617
REMARK INTRA:                   0.263
REMARK UNBOUND:                -0.312
REMARK  Name = 
REMARK  2 active torsions:
REMARK  status: ('A' for Active; 'I' for Inactive)
REMARK    1  A    between atoms: N_1  and  C_2
REMARK    2  A    between atoms: C_15  and  N_16
REMARK                            x       y       z     vdW  Elec       q    Type
REMARK                         _______ _______ _______ _____ _____    ______ ____
ROOT
ATOM      1  C   UNL     1      -9.100  -5.210  18.257  0.00  0.00    +0.000 A 
ATOM      2  C   UNL     1      -8.551  -4.942  19.532  0.00  0.00    +0.000 A 
ATOM      3  N   UNL     1      -8.678  -3.634  20.038  0.00  0.00    +0.000 N 
ATOM      4  C   UNL     1      -8.626  -3.217  21.369  0.00  0.00    +0.000 A 
ATOM      5  C   UNL     1      -7.854  -3.831  22.347  0.00  0.00    +0.000 A 
ATOM      6  C   UNL     1      -7.999  -3.442  23.673  0.00  0.00    +0.000 A 
ATOM      7  C   UNL     1      -8.867  -2.407  23.985  0.00  0.00    +0.000 A 
ATOM      8 BR   UNL     1      -9.145  -1.880  25.768  0.00  0.00    +0.000 Br
ATOM      9  C   UNL     1      -9.535  -1.783  22.943  0.00  0.00    +0.000 A 
ATOM     10  N   UNL     1      -9.435  -2.174  21.649  0.00  0.00    +0.000 NA
ATOM     11  N   UNL     1      -7.869  -5.876  20.225  0.00  0.00    +0.000 NA
ATOM     12  C   UNL     1      -7.760  -7.088  19.679  0.00  0.00    +0.000 A 
ATOM     13  N   UNL     1      -8.246  -7.410  18.485  0.00  0.00    +0.000 N 
ATOM     14  C   UNL     1      -8.895  -6.511  17.742  0.00  0.00    +0.000 A 
ATOM     15  H   UNL     1      -9.463  -3.123  19.641  0.00  0.00    +0.000 HD
ATOM     16  H   UNL     1      -7.166  -4.632  22.112  0.00  0.00    +0.000 HD
ATOM     17  H   UNL     1      -7.456  -3.967  24.456  0.00  0.00    +0.000 HD
ATOM     18  H   UNL     1     -10.196  -0.942  23.118  0.00  0.00    +0.000 HD
ATOM     19  H   UNL     1      -7.235  -7.854  20.240  0.00  0.00    +0.000 HD
ATOM     20  H   UNL     1      -8.119  -8.345  18.110  0.00  0.00    +0.000 HD
ENDROOT
BRANCH  14  21
ATOM     21  N   UNL     1      -9.294  -6.970  16.484  0.00  0.00    +0.000 N 
ATOM     22  C   UNL     1      -9.409  -8.329  16.132  0.00  0.00    +0.000 A 
ATOM     23  C   UNL     1      -9.881  -9.301  17.011  0.00  0.00    +0.000 A 
ATOM     24  C   UNL     1      -9.726 -10.639  16.668  0.00  0.00    +0.000 A 
ATOM     25  C   UNL     1      -9.201 -10.965  15.424  0.00  0.00    +0.000 A 
ATOM     26  C   UNL     1      -8.850  -9.933  14.575  0.00  0.00    +0.000 A 
ATOM     27  N   UNL     1      -8.919  -8.627  14.919  0.00  0.00    +0.000 NA
ATOM     28  H   UNL     1      -8.678  -6.640  15.734  0.00  0.00    +0.000 HD
ATOM     29  H   UNL     1     -10.279  -9.045  17.988  0.00  0.00    +0.000 HD
ATOM     30  H   UNL     1      -9.998 -11.424  17.370  0.00  0.00    +0.000 HD
ATOM     31  H   UNL     1      -9.071 -11.999  15.122  0.00  0.00    +0.000 HD
ATOM     32  H   UNL     1      -8.476 -10.132  13.573  0.00  0.00    +0.000 HD
ENDBRANCH  14  21
BRANCH   1  33
ATOM     33  N   UNL     1      -9.942  -4.254  17.644  0.00  0.00    +0.000 N 
ATOM     34  H   UNL     1     -10.001  -3.362  18.135  0.00  0.00    +0.000 HD
ATOM     35  H   UNL     1      -9.848  -4.105  16.641  0.00  0.00    +0.000 HD
ENDBRANCH   1  33
TORSDOF 2
ENDMDL
MODEL 6
REMARK VINA RESULT:    -9.226      4.162      8.071
REMARK INTER + INTRA:         -10.347
REMARK INTER:                 -10.724
REMARK INTRA:                   0.376
REMARK UNBOUND:                -0.312
REMARK  Name = 
REMARK  2 active torsions:
REMARK  status: ('A' for Active; 'I' for Inactive)
REMARK    1  A    between atoms: N_1  and  C_2
REMARK    2  A    between atoms: C_15  and  N_16
REMARK                            x       y       z     vdW  Elec       q    Type
REMARK                         _______ _______ _______ _____ _____    ______ ____
ROOT
ATOM      1  C   UNL     1      -9.329  -8.817  18.383  0.00  0.00    +0.000 A 
ATOM      2  C   UNL     1     -10.104  -7.757  17.858  0.00  0.00    +0.000 A 
ATOM      3  N   UNL     1     -10.172  -6.564  18.602  0.00  0.00    +0.000 N 
ATOM      4  C   UNL     1     -10.481  -5.281  18.146  0.00  0.00    +0.000 A 
ATOM      5  C   UNL     1     -11.353  -5.017  17.098  0.00  0.00    +0.000 A 
ATOM      6  C   UNL     1     -11.465  -3.719  16.615  0.00  0.00    +0.000 A 
ATOM      7  C   UNL     1     -10.750  -2.703  17.230  0.00  0.00    +0.000 A 
ATOM      8 BR   UNL     1     -10.819  -0.940  16.581  0.00  0.00    +0.000 Br
ATOM      9  C   UNL     1      -9.969  -3.030  18.328  0.00  0.00    +0.000 A 
ATOM     10  N   UNL     1      -9.818  -4.296  18.788  0.00  0.00    +0.000 NA
ATOM     11  N   UNL     1     -10.815  -7.890  16.720  0.00  0.00    +0.000 NA
ATOM     12  C   UNL     1     -10.731  -9.055  16.076  0.00  0.00    +0.000 A 
ATOM     13  N   UNL     1     -10.027 -10.094  16.511  0.00  0.00    +0.000 N 
ATOM     14  C   UNL     1      -9.338 -10.028  17.653  0.00  0.00    +0.000 A 
ATOM     15  H   UNL     1      -9.376  -6.430  19.221  0.00  0.00    +0.000 HD
ATOM     16  H   UNL     1     -11.924  -5.801  16.619  0.00  0.00    +0.000 HD
ATOM     17  H   UNL     1     -12.088  -3.514  15.747  0.00  0.00    +0.000 HD
ATOM     18  H   UNL     1      -9.418  -2.275  18.876  0.00  0.00    +0.000 HD
ATOM     19  H   UNL     1     -11.278  -9.163  15.146  0.00  0.00    +0.000 HD
ATOM     20  H   UNL     1     -10.012 -10.965  15.988  0.00  0.00    +0.000 HD
ENDROOT
BRANCH  14  21
ATOM     21  N   UNL     1      -8.698 -11.214  18.019  0.00  0.00    +0.000 N 
ATOM     22  C   UNL     1      -8.573 -12.343  17.186  0.00  0.00    +0.000 A 
ATOM     23  C   UNL     1      -8.351 -12.249  15.814  0.00  0.00    +0.000 A 
ATOM     24  C   UNL     1      -8.491 -13.394  15.038  0.00  0.00    +0.000 A 
ATOM     25  C   UNL     1      -8.747 -14.609  15.660  0.00  0.00    +0.000 A 
ATOM     26  C   UNL     1      -8.856 -14.625  17.038  0.00  0.00    +0.000 A 
ATOM     27  N   UNL     1      -8.801 -13.512  17.804  0.00  0.00    +0.000 NA
ATOM     28  H   UNL     1      -9.118 -11.647  18.848  0.00  0.00    +0.000 HD
ATOM     29  H   UNL     1      -8.163 -11.297  15.327  0.00  0.00    +0.000 HD
ATOM     30  H   UNL     1      -8.416 -13.339  13.955  0.00  0.00    +0.000 HD
ATOM     31  H   UNL     1      -8.857 -15.523  15.086  0.00  0.00    +0.000 HD
ATOM     32  H   UNL     1      -9.011 -15.555  17.579  0.00  0.00    +0.000 HD
ENDBRANCH  14  21
BRANCH   1  33
ATOM     33  N   UNL     1      -8.478  -8.579  19.486  0.00  0.00    +0.000 N 
ATOM     34  H   UNL     1      -8.681  -9.145  20.310  0.00  0.00    +0.000 HD
ATOM     35  H   UNL     1      -7.474  -8.539  19.318  0.00  0.00    +0.000 HD
ENDBRANCH   1  33
TORSDOF 2
ENDMDL
MODEL 7
REMARK VINA RESULT:    -9.104      3.755      4.665
REMARK INTER + INTRA:         -10.215
REMARK INTER:                  -9.918
REMARK INTRA:                  -0.297
REMARK UNBOUND:                -0.312
REMARK  Name = 
REMARK  2 active torsions:
REMARK  status: ('A' for Active; 'I' for Inactive)
REMARK    1  A    between atoms: N_1  and  C_2
REMARK    2  A    between atoms: C_15  and  N_16
REMARK                            x       y       z     vdW  Elec       q    Type
REMARK                         _______ _______ _______ _____ _____    ______ ____
ROOT
ATOM      1  C   UNL     1      -9.739  -5.547  16.355  0.00  0.00    +0.000 A 
ATOM      2  C   UNL     1      -9.991  -6.918  16.586  0.00  0.00    +0.000 A 
ATOM      3  N   UNL     1      -9.907  -7.795  15.487  0.00  0.00    +0.000 N 
ATOM      4  C   UNL     1      -9.685  -9.172  15.500  0.00  0.00    +0.000 A 
ATOM      5  C   UNL     1     -10.117 -10.021  16.512  0.00  0.00    +0.000 A 
ATOM      6  C   UNL     1      -9.703 -11.347  16.511  0.00  0.00    +0.000 A 
ATOM      7  C   UNL     1      -8.919 -11.812  15.467  0.00  0.00    +0.000 A 
ATOM      8 BR   UNL     1      -8.284 -13.582  15.446  0.00  0.00    +0.000 Br
ATOM      9  C   UNL     1      -8.604 -10.928  14.447  0.00  0.00    +0.000 A 
ATOM     10  N   UNL     1      -8.966  -9.622  14.450  0.00  0.00    +0.000 NA
ATOM     11  N   UNL     1     -10.366  -7.380  17.797  0.00  0.00    +0.000 NA
ATOM     12  C   UNL     1     -10.455  -6.495  18.791  0.00  0.00    +0.000 A 
ATOM     13  N   UNL     1     -10.237  -5.193  18.646  0.00  0.00    +0.000 N 
ATOM     14  C   UNL     1      -9.903  -4.679  17.460  0.00  0.00    +0.000 A 
ATOM     15  H   UNL     1      -9.309  -7.447  14.740  0.00  0.00    +0.000 HD
ATOM     16  H   UNL     1     -10.737  -9.670  17.325  0.00  0.00    +0.000 HD
ATOM     17  H   UNL     1      -9.973 -12.001  17.338  0.00  0.00    +0.000 HD
ATOM     18  H   UNL     1      -8.029 -11.242  13.583  0.00  0.00    +0.000 HD
ATOM     19  H   UNL     1     -10.731  -6.860  19.774  0.00  0.00    +0.000 HD
ATOM     20  H   UNL     1     -10.335  -4.561  19.435  0.00  0.00    +0.000 HD
ENDROOT
BRANCH  14  21
ATOM     21  N   UNL     1      -9.767  -3.289  17.441  0.00  0.00    +0.000 N 
ATOM     22  C   UNL     1     -10.696  -2.406  16.857  0.00  0.00    +0.000 A 
ATOM     23  C   UNL     1     -12.072  -2.609  16.913  0.00  0.00    +0.000 A 
ATOM     24  C   UNL     1     -12.893  -1.832  16.104  0.00  0.00    +0.000 A 
ATOM     25  C   UNL     1     -12.331  -0.815  15.344  0.00  0.00    +0.000 A 
ATOM     26  C   UNL     1     -10.965  -0.620  15.425  0.00  0.00    +0.000 A 
ATOM     27  N   UNL     1     -10.139  -1.414  16.144  0.00  0.00    +0.000 NA
ATOM     28  H   UNL     1      -8.908  -2.986  16.971  0.00  0.00    +0.000 HD
ATOM     29  H   UNL     1     -12.509  -3.413  17.498  0.00  0.00    +0.000 HD
ATOM     30  H   UNL     1     -13.962  -2.025  16.054  0.00  0.00    +0.000 HD
ATOM     31  H   UNL     1     -12.942  -0.185  14.706  0.00  0.00    +0.000 HD
ATOM     32  H   UNL     1     -10.480   0.190  14.886  0.00  0.00    +0.000 HD
ENDBRANCH  14  21
BRANCH   1  33
ATOM     33  N   UNL     1      -9.194  -5.136  15.117  0.00  0.00    +0.000 N 
ATOM     34  H   UNL     1      -9.306  -5.809  14.359  0.00  0.00    +0.000 HD
ATOM     35  H   UNL     1      -9.399  -4.193  14.792  0.00  0.00    +0.000 HD
ENDBRANCH   1  33
TORSDOF 2
ENDMDL
MODEL 8
REMARK VINA RESULT:    -8.979      1.996      2.456
REMARK INTER + INTRA:         -10.078
REMARK INTER:                 -10.625
REMARK INTRA:                   0.547
REMARK UNBOUND:                -0.312
REMARK  Name = 
REMARK  2 active torsions:
REMARK  status: ('A' for Active; 'I' for Inactive)
REMARK    1  A    between atoms: N_1  and  C_2
REMARK    2  A    between atoms: C_15  and  N_16
REMARK                            x       y       z     vdW  Elec       q    Type
REMARK                         _______ _______ _______ _____ _____    ______ ____
ROOT
ATOM      1  C   UNL     1      -9.386  -5.753  17.999  0.00  0.00    +0.000 A 
ATOM      2  C   UNL     1      -9.352  -7.160  18.129  0.00  0.00    +0.000 A 
ATOM      3  N   UNL     1      -9.954  -7.927  17.113  0.00  0.00    +0.000 N 
ATOM      4  C   UNL     1      -9.703  -9.258  16.776  0.00  0.00    +0.000 A 
ATOM      5  C   UNL     1      -9.326 -10.234  17.689  0.00  0.00    +0.000 A 
ATOM      6  C   UNL     1      -8.940 -11.487  17.227  0.00  0.00    +0.000 A 
ATOM      7  C   UNL     1      -8.998 -11.755  15.869  0.00  0.00    +0.000 A 
ATOM      8 BR   UNL     1      -8.433 -13.413  15.184  0.00  0.00    +0.000 Br
ATOM      9  C   UNL     1      -9.471 -10.759  15.029  0.00  0.00    +0.000 A 
ATOM     10  N   UNL     1      -9.815  -9.520  15.457  0.00  0.00    +0.000 NA
ATOM     11  N   UNL     1      -8.825  -7.762  19.215  0.00  0.00    +0.000 NA
ATOM     12  C   UNL     1      -8.295  -6.979  20.155  0.00  0.00    +0.000 A 
ATOM     13  N   UNL     1      -8.295  -5.652  20.102  0.00  0.00    +0.000 N 
ATOM     14  C   UNL     1      -8.840  -5.006  19.068  0.00  0.00    +0.000 A 
ATOM     15  H   UNL     1     -10.006  -7.443  16.220  0.00  0.00    +0.000 HD
ATOM     16  H   UNL     1      -9.287 -10.037  18.752  0.00  0.00    +0.000 HD
ATOM     17  H   UNL     1      -8.571 -12.234  17.927  0.00  0.00    +0.000 HD
ATOM     18  H   UNL     1      -9.579 -10.921  13.963  0.00  0.00    +0.000 HD
ATOM     19  H   UNL     1      -7.845  -7.455  21.019  0.00  0.00    +0.000 HD
ATOM     20  H   UNL     1      -7.891  -5.104  20.855  0.00  0.00    +0.000 HD
ENDROOT
BRANCH  14  21
ATOM     21  N   UNL     1      -8.825  -3.613  19.175  0.00  0.00    +0.000 N 
ATOM     22  C   UNL     1      -8.828  -2.908  20.395  0.00  0.00    +0.000 A 
ATOM     23  C   UNL     1      -8.130  -3.340  21.520  0.00  0.00    +0.000 A 
ATOM     24  C   UNL     1      -8.389  -2.725  22.740  0.00  0.00    +0.000 A 
ATOM     25  C   UNL     1      -9.253  -1.639  22.783  0.00  0.00    +0.000 A 
ATOM     26  C   UNL     1      -9.826  -1.215  21.599  0.00  0.00    +0.000 A 
ATOM     27  N   UNL     1      -9.650  -1.847  20.416  0.00  0.00    +0.000 NA
ATOM     28  H   UNL     1      -9.629  -3.176  18.712  0.00  0.00    +0.000 HD
ATOM     29  H   UNL     1      -7.465  -4.197  21.488  0.00  0.00    +0.000 HD
ATOM     30  H   UNL     1      -7.932  -3.097  23.654  0.00  0.00    +0.000 HD
ATOM     31  H   UNL     1      -9.473  -1.132  23.716  0.00  0.00    +0.000 HD
ATOM     32  H   UNL     1     -10.475  -0.343  21.569  0.00  0.00    +0.000 HD
ENDBRANCH  14  21
BRANCH   1  33
ATOM     33  N   UNL     1      -9.800  -5.174  16.777  0.00  0.00    +0.000 N 
ATOM     34  H   UNL     1      -9.544  -5.707  15.946  0.00  0.00    +0.000 HD
ATOM     35  H   UNL     1     -10.758  -4.837  16.706  0.00  0.00    +0.000 HD
ENDBRANCH   1  33
TORSDOF 2
ENDMDL
MODEL 9
REMARK VINA RESULT:    -8.917      3.258      4.220
REMARK INTER + INTRA:         -10.011
REMARK INTER:                 -10.549
REMARK INTRA:                   0.538
REMARK UNBOUND:                -0.312
REMARK  Name = 
REMARK  2 active torsions:
REMARK  status: ('A' for Active; 'I' for Inactive)
REMARK    1  A    between atoms: N_1  and  C_2
REMARK    2  A    between atoms: C_15  and  N_16
REMARK                            x       y       z     vdW  Elec       q    Type
REMARK                         _______ _______ _______ _____ _____    ______ ____
ROOT
ATOM      1  C   UNL     1     -10.087  -7.239  18.394  0.00  0.00    +0.000 A 
ATOM      2  C   UNL     1      -9.743  -8.138  17.359  0.00  0.00    +0.000 A 
ATOM      3  N   UNL     1      -8.900  -9.218  17.682  0.00  0.00    +0.000 N 
ATOM      4  C   UNL     1      -8.761 -10.433  17.009  0.00  0.00    +0.000 A 
ATOM      5  C   UNL     1      -8.908 -10.583  15.636  0.00  0.00    +0.000 A 
ATOM      6  C   UNL     1      -8.912 -11.859  15.086  0.00  0.00    +0.000 A 
ATOM      7  C   UNL     1      -8.707 -12.953  15.912  0.00  0.00    +0.000 A 
ATOM      8 BR   UNL     1      -8.761 -14.705  15.231  0.00  0.00    +0.000 Br
ATOM      9  C   UNL     1      -8.477 -12.717  17.259  0.00  0.00    +0.000 A 
ATOM     10  N   UNL     1      -8.508 -11.483  17.818  0.00  0.00    +0.000 NA
ATOM     11  N   UNL     1     -10.146  -7.947  16.086  0.00  0.00    +0.000 NA
ATOM     12  C   UNL     1     -10.921  -6.890  15.840  0.00  0.00    +0.000 A 
ATOM     13  N   UNL     1     -11.279  -6.002  16.760  0.00  0.00    +0.000 N 
ATOM     14  C   UNL     1     -10.874  -6.123  18.027  0.00  0.00    +0.000 A 
ATOM     15  H   UNL     1      -8.933  -9.474  18.666  0.00  0.00    +0.000 HD
ATOM     16  H   UNL     1      -9.058  -9.735  14.981  0.00  0.00    +0.000 HD
ATOM     17  H   UNL     1      -9.101 -11.993  14.023  0.00  0.00    +0.000 HD
ATOM     18  H   UNL     1      -8.271 -13.527  17.949  0.00  0.00    +0.000 HD
ATOM     19  H   UNL     1     -11.272  -6.741  14.824  0.00  0.00    +0.000 HD
ATOM     20  H   UNL     1     -11.858  -5.204  16.513  0.00  0.00    +0.000 HD
ENDROOT
BRANCH  14  21
ATOM     21  N   UNL     1     -11.273  -5.084  18.871  0.00  0.00    +0.000 N 
ATOM     22  C   UNL     1     -11.507  -3.760  18.450  0.00  0.00    +0.000 A 
ATOM     23  C   UNL     1     -12.100  -3.449  17.228  0.00  0.00    +0.000 A 
ATOM     24  C   UNL     1     -12.063  -2.131  16.788  0.00  0.00    +0.000 A 
ATOM     25  C   UNL     1     -11.532  -1.152  17.618  0.00  0.00    +0.000 A 
ATOM     26  C   UNL     1     -11.054  -1.538  18.857  0.00  0.00    +0.000 A 
ATOM     27  N   UNL     1     -11.008  -2.824  19.272  0.00  0.00    +0.000 NA
ATOM     28  H   UNL     1     -10.604  -4.917  19.629  0.00  0.00    +0.000 HD
ATOM     29  H   UNL     1     -12.504  -4.216  16.575  0.00  0.00    +0.000 HD
ATOM     30  H   UNL     1     -12.434  -1.868  15.800  0.00  0.00    +0.000 HD
ATOM     31  H   UNL     1     -11.492  -0.113  17.309  0.00  0.00    +0.000 HD
ATOM     32  H   UNL     1     -10.669  -0.807  19.563  0.00  0.00    +0.000 HD
ENDBRANCH  14  21
BRANCH   1  33
ATOM     33  N   UNL     1      -9.779  -7.566  19.734  0.00  0.00    +0.000 N 
ATOM     34  H   UNL     1      -9.214  -6.871  20.224  0.00  0.00    +0.000 HD
ATOM     35  H   UNL     1     -10.531  -7.902  20.332  0.00  0.00    +0.000 HD
ENDBRANCH   1  33
TORSDOF 2
ENDMDL
