MODEL 1
REMARK VINA RESULT:   -10.847      0.000      0.000
REMARK INTER + INTRA:         -12.636
REMARK INTER:                 -12.115
REMARK INTRA:                  -0.522
REMARK UNBOUND:                -0.522
REMARK  Name = 
REMARK  3 active torsions:
REMARK  status: ('A' for Active; 'I' for Inactive)
REMARK    1  A    between atoms: C_1  and  C_2
REMARK    2  A    between atoms: N_9  and  C_10
REMARK    3  A    between atoms: C_22  and  N_23
REMARK                            x       y       z     vdW  Elec       q    Type
REMARK                         _______ _______ _______ _____ _____    ______ ____
ROOT
ATOM      1  C   UNL     1      -9.944  -6.440  16.962  0.00  0.00    +0.000 A 
ATOM      2  N   UNL     1      -8.712  -6.412  17.499  0.00  0.00    +0.000 N 
ATOM      3  C   UNL     1      -8.378  -5.522  18.416  0.00  0.00    +0.000 A 
ATOM      4  N   UNL     1      -9.213  -4.589  18.881  0.00  0.00    +0.000 NA
ATOM      5  C   UNL     1     -10.464  -4.575  18.371  0.00  0.00    +0.000 A 
ATOM      6  N   UNL     1     -11.372  -3.590  18.825  0.00  0.00    +0.000 N 
ATOM      7  C   UNL     1     -10.957  -2.450  19.539  0.00  0.00    +0.000 A 
ATOM      8  C   UNL     1      -9.926  -1.646  19.044  0.00  0.00    +0.000 A 
ATOM      9  C   UNL     1      -9.480  -0.565  19.792  0.00  0.00    +0.000 A 
ATOM     10  C   UNL     1     -10.089  -0.297  21.007  0.00  0.00    +0.000 A 
ATOM     11  C   UNL     1     -11.133  -1.117  21.408  0.00  0.00    +0.000 A 
ATOM     12  N   UNL     1     -11.584  -2.179  20.697  0.00  0.00    +0.000 NA
ATOM     13  C   UNL     1     -10.879  -5.466  17.360  0.00  0.00    +0.000 A 
ATOM     14  H   UNL     1      -8.023  -7.074  17.131  0.00  0.00    +0.000 HD
ATOM     15  H   UNL     1      -7.360  -5.531  18.788  0.00  0.00    +0.000 HD
ATOM     16  H   UNL     1     -12.124  -4.015  19.365  0.00  0.00    +0.000 HD
ATOM     17  H   UNL     1      -9.463  -1.870  18.088  0.00  0.00    +0.000 HD
ATOM     18  H   UNL     1      -8.664   0.053  19.430  0.00  0.00    +0.000 HD
ATOM     19  H   UNL     1      -9.762   0.532  21.625  0.00  0.00    +0.000 HD
ATOM     20  H   UNL     1     -11.648  -0.935  22.348  0.00  0.00    +0.000 HD
ENDROOT
BRANCH   1  28
ATOM     21  C   UNL     1      -8.665 -11.351  18.033  0.00  0.00    +0.000 A 
ATOM     22  C   UNL     1      -8.253 -12.644  17.669  0.00  0.00    +0.000 A 
ATOM     23  C   UNL     1      -8.345 -13.089  16.353  0.00  0.00    +0.000 A 
ATOM     24  C   UNL     1      -8.853 -12.263  15.346  0.00  0.00    +0.000 A 
ATOM     25  C   UNL     1      -9.262 -10.973  15.702  0.00  0.00    +0.000 A 
ATOM     26  S   UNL     1      -9.904  -9.721  14.703  0.00  0.00    +0.000 S 
ATOM     27  C   UNL     1      -9.918  -8.659  16.040  0.00  0.00    +0.000 A 
ATOM     28  N   UNL     1     -10.188  -7.340  15.919  0.00  0.00    +0.000 N 
ATOM     29  N   UNL     1      -9.590  -9.195  17.198  0.00  0.00    +0.000 NA
ATOM     30  C   UNL     1      -9.176 -10.509  17.015  0.00  0.00    +0.000 A 
ATOM     31  H   UNL     1      -7.845 -13.320  18.422  0.00  0.00    +0.000 HD
ATOM     32  H   UNL     1      -8.009 -14.095  16.100  0.00  0.00    +0.000 HD
ATOM     33  H   UNL     1      -8.909 -12.611  14.319  0.00  0.00    +0.000 HD
ATOM     34  H   UNL     1     -10.496  -6.948  15.037  0.00  0.00    +0.000 HD
BRANCH  21  35
ATOM     35  C   UNL     1      -8.518 -10.888  19.455  0.00  0.00    +0.000 C 
ATOM     36  H   UNL     1      -7.750 -11.454  19.993  0.00  0.00    +0.000 HD
ATOM     37  H   UNL     1      -9.465 -11.010  19.992  0.00  0.00    +0.000 HD
ATOM     38  H   UNL     1      -8.238  -9.830  19.474  0.00  0.00    +0.000 HD
ENDBRANCH  21  35
ENDBRANCH   1  28
BRANCH  13  39
ATOM     39  N   UNL     1     -12.209  -5.467  16.880  0.00  0.00    +0.000 N 
ATOM     40  H   UNL     1     -12.302  -6.037  16.033  0.00  0.00    +0.000 HD
ATOM     41  H   UNL     1     -12.926  -5.731  17.549  0.00  0.00    +0.000 HD
ENDBRANCH  13  39
TORSDOF 3
ENDMDL
MODEL 2
REMARK VINA RESULT:   -10.668      2.163      2.520
REMARK INTER + INTRA:         -12.437
REMARK INTER:                 -12.601
REMARK INTRA:                   0.163
REMARK UNBOUND:                -0.522
REMARK  Name = 
REMARK  3 active torsions:
REMARK  status: ('A' for Active; 'I' for Inactive)
REMARK    1  A    between atoms: C_1  and  C_2
REMARK    2  A    between atoms: N_9  and  C_10
REMARK    3  A    between atoms: C_22  and  N_23
REMARK                            x       y       z     vdW  Elec       q    Type
REMARK                         _______ _______ _______ _____ _____    ______ ____
ROOT
ATOM      1  C   UNL     1      -9.191  -7.440  17.681  0.00  0.00    +0.000 A 
ATOM      2  N   UNL     1      -8.810  -8.281  18.658  0.00  0.00    +0.000 N 
ATOM      3  C   UNL     1      -8.440  -7.837  19.846  0.00  0.00    +0.000 A 
ATOM      4  N   UNL     1      -8.410  -6.544  20.176  0.00  0.00    +0.000 NA
ATOM      5  C   UNL     1      -8.784  -5.658  19.227  0.00  0.00    +0.000 A 
ATOM      6  N   UNL     1      -8.748  -4.277  19.533  0.00  0.00    +0.000 N 
ATOM      7  C   UNL     1      -8.061  -3.768  20.651  0.00  0.00    +0.000 A 
ATOM      8  C   UNL     1      -6.727  -4.120  20.877  0.00  0.00    +0.000 A 
ATOM      9  C   UNL     1      -6.082  -3.666  22.021  0.00  0.00    +0.000 A 
ATOM     10  C   UNL     1      -6.777  -2.852  22.900  0.00  0.00    +0.000 A 
ATOM     11  C   UNL     1      -8.084  -2.513  22.581  0.00  0.00    +0.000 A 
ATOM     12  N   UNL     1      -8.734  -2.946  21.474  0.00  0.00    +0.000 NA
ATOM     13  C   UNL     1      -9.150  -6.054  17.925  0.00  0.00    +0.000 A 
ATOM     14  H   UNL     1      -8.764  -9.278  18.430  0.00  0.00    +0.000 HD
ATOM     15  H   UNL     1      -8.114  -8.562  20.582  0.00  0.00    +0.000 HD
ATOM     16  H   UNL     1      -9.690  -3.891  19.569  0.00  0.00    +0.000 HD
ATOM     17  H   UNL     1      -6.198  -4.757  20.176  0.00  0.00    +0.000 HD
ATOM     18  H   UNL     1      -5.054  -3.952  22.220  0.00  0.00    +0.000 HD
ATOM     19  H   UNL     1      -6.312  -2.486  23.808  0.00  0.00    +0.000 HD
ATOM     20  H   UNL     1      -8.662  -1.866  23.236  0.00  0.00    +0.000 HD
ENDROOT
BRANCH   1  28
ATOM     21  C   UNL     1      -8.663 -12.592  17.391  0.00  0.00    +0.000 A 
ATOM     22  C   UNL     1      -8.395 -13.785  16.698  0.00  0.00    +0.000 A 
ATOM     23  C   UNL     1      -8.433 -13.837  15.307  0.00  0.00    +0.000 A 
ATOM     24  C   UNL     1      -8.742 -12.704  14.551  0.00  0.00    +0.000 A 
ATOM     25  C   UNL     1      -9.007 -11.512  15.235  0.00  0.00    +0.000 A 
ATOM     26  S   UNL     1      -9.393  -9.955  14.598  0.00  0.00    +0.000 S 
ATOM     27  C   UNL     1      -9.379  -9.305  16.176  0.00  0.00    +0.000 A 
ATOM     28  N   UNL     1      -9.463  -7.978  16.418  0.00  0.00    +0.000 N 
ATOM     29  N   UNL     1      -9.223 -10.177  17.152  0.00  0.00    +0.000 NA
ATOM     30  C   UNL     1      -8.971 -11.439  16.628  0.00  0.00    +0.000 A 
ATOM     31  H   UNL     1      -8.144 -14.691  17.249  0.00  0.00    +0.000 HD
ATOM     32  H   UNL     1      -8.212 -14.777  14.799  0.00  0.00    +0.000 HD
ATOM     33  H   UNL     1      -8.757 -12.749  13.466  0.00  0.00    +0.000 HD
ATOM     34  H   UNL     1      -9.641  -7.320  15.668  0.00  0.00    +0.000 HD
BRANCH  21  35
ATOM     35  C   UNL     1      -8.577 -12.558  18.891  0.00  0.00    +0.000 C 
ATOM     36  H   UNL     1      -9.250 -11.812  19.324  0.00  0.00    +0.000 HD
ATOM     37  H   UNL     1      -7.556 -12.315  19.205  0.00  0.00    +0.000 HD
ATOM     38  H   UNL     1      -8.845 -13.538  19.300  0.00  0.00    +0.000 HD
ENDBRANCH  21  35
ENDBRANCH   1  28
BRANCH  13  39
ATOM     39  N   UNL     1      -9.589  -5.113  16.964  0.00  0.00    +0.000 N 
ATOM     40  H   UNL     1     -10.612  -5.046  16.945  0.00  0.00    +0.000 HD
ATOM     41  H   UNL     1      -9.188  -4.183  17.033  0.00  0.00    +0.000 HD
ENDBRANCH  13  39
TORSDOF 3
ENDMDL
MODEL 3
REMARK VINA RESULT:   -10.526      2.623      3.654
REMARK INTER + INTRA:         -12.278
REMARK INTER:                 -11.771
REMARK INTRA:                  -0.507
REMARK UNBOUND:                -0.522
REMARK  Name = 
REMARK  3 active torsions:
REMARK  status: ('A' for Active; 'I' for Inactive)
REMARK    1  A    between atoms: C_1  and  C_2
REMARK    2  A    between atoms: N_9  and  C_10
REMARK    3  A    between atoms: C_22  and  N_23
REMARK                            x       y       z     vdW  Elec       q    Type
REMARK                         _______ _______ _______ _____ _____    ______ ____
ROOT
ATOM      1  C   UNL     1     -10.178  -6.279  17.823  0.00  0.00    +0.000 A 
ATOM      2  N   UNL     1     -11.174  -6.717  17.033  0.00  0.00    +0.000 N 
ATOM      3  C   UNL     1     -11.802  -5.906  16.201  0.00  0.00    +0.000 A 
ATOM      4  N   UNL     1     -11.514  -4.608  16.072  0.00  0.00    +0.000 NA
ATOM      5  C   UNL     1     -10.520  -4.120  16.847  0.00  0.00    +0.000 A 
ATOM      6  N   UNL     1     -10.198  -2.746  16.754  0.00  0.00    +0.000 N 
ATOM      7  C   UNL     1     -11.048  -1.810  16.135  0.00  0.00    +0.000 A 
ATOM      8  C   UNL     1     -12.397  -1.738  16.496  0.00  0.00    +0.000 A 
ATOM      9  C   UNL     1     -13.239  -0.858  15.828  0.00  0.00    +0.000 A 
ATOM     10  C   UNL     1     -12.710  -0.054  14.832  0.00  0.00    +0.000 A 
ATOM     11  C   UNL     1     -11.353  -0.155  14.563  0.00  0.00    +0.000 A 
ATOM     12  N   UNL     1     -10.513  -1.008  15.199  0.00  0.00    +0.000 NA
ATOM     13  C   UNL     1      -9.834  -4.915  17.788  0.00  0.00    +0.000 A 
ATOM     14  H   UNL     1     -11.465  -7.692  17.138  0.00  0.00    +0.000 HD
ATOM     15  H   UNL     1     -12.617  -6.311  15.612  0.00  0.00    +0.000 HD
ATOM     16  H   UNL     1      -9.275  -2.619  16.342  0.00  0.00    +0.000 HD
ATOM     17  H   UNL     1     -12.792  -2.374  17.281  0.00  0.00    +0.000 HD
ATOM     18  H   UNL     1     -14.293  -0.809  16.082  0.00  0.00    +0.000 HD
ATOM     19  H   UNL     1     -13.337   0.638  14.281  0.00  0.00    +0.000 HD
ATOM     20  H   UNL     1     -10.894   0.466  13.798  0.00  0.00    +0.000 HD
ENDROOT
BRANCH   1  28
ATOM     21  C   UNL     1      -8.822 -10.878  15.843  0.00  0.00    +0.000 A 
ATOM     22  C   UNL     1      -8.595 -12.262  15.935  0.00  0.00    +0.000 A 
ATOM     23  C   UNL     1      -8.432 -12.887  17.168  0.00  0.00    +0.000 A 
ATOM     24  C   UNL     1      -8.488 -12.159  18.359  0.00  0.00    +0.000 A 
ATOM     25  C   UNL     1      -8.717 -10.781  18.274  0.00  0.00    +0.000 A 
ATOM     26  S   UNL     1      -8.860  -9.621  19.544  0.00  0.00    +0.000 S 
ATOM     27  C   UNL     1      -9.225  -8.409  18.399  0.00  0.00    +0.000 A 
ATOM     28  N   UNL     1      -9.636  -7.172  18.755  0.00  0.00    +0.000 N 
ATOM     29  N   UNL     1      -9.137  -8.773  17.135  0.00  0.00    +0.000 NA
ATOM     30  C   UNL     1      -8.884 -10.136  17.048  0.00  0.00    +0.000 A 
ATOM     31  H   UNL     1      -8.550 -12.869  15.030  0.00  0.00    +0.000 HD
ATOM     32  H   UNL     1      -8.266 -13.964  17.207  0.00  0.00    +0.000 HD
ATOM     33  H   UNL     1      -8.374 -12.655  19.318  0.00  0.00    +0.000 HD
ATOM     34  H   UNL     1      -9.645  -6.882  19.726  0.00  0.00    +0.000 HD
BRANCH  21  35
ATOM     35  C   UNL     1      -9.030 -10.238  14.499  0.00  0.00    +0.000 C 
ATOM     36  H   UNL     1      -8.103 -10.189  13.920  0.00  0.00    +0.000 HD
ATOM     37  H   UNL     1      -9.407  -9.217  14.621  0.00  0.00    +0.000 HD
ATOM     38  H   UNL     1      -9.761 -10.816  13.923  0.00  0.00    +0.000 HD
ENDBRANCH  21  35
ENDBRANCH   1  28
BRANCH  13  39
ATOM     39  N   UNL     1      -8.762  -4.395  18.549  0.00  0.00    +0.000 N 
ATOM     40  H   UNL     1      -8.263  -5.138  19.051  0.00  0.00    +0.000 HD
ATOM     41  H   UNL     1      -8.095  -3.816  18.046  0.00  0.00    +0.000 HD
ENDBRANCH  13  39
TORSDOF 3
ENDMDL
MODEL 4
REMARK VINA RESULT:   -10.369      2.670      8.509
REMARK INTER + INTRA:         -12.103
REMARK INTER:                 -12.236
REMARK INTRA:                   0.133
REMARK UNBOUND:                -0.522
REMARK  Name = 
REMARK  3 active torsions:
REMARK  status: ('A' for Active; 'I' for Inactive)
REMARK    1  A    between atoms: C_1  and  C_2
REMARK    2  A    between atoms: N_9  and  C_10
REMARK    3  A    between atoms: C_22  and  N_23
REMARK                            x       y       z     vdW  Elec       q    Type
REMARK                         _______ _______ _______ _____ _____    ______ ____
ROOT
ATOM      1  C   UNL     1      -9.824  -4.987  17.996  0.00  0.00    +0.000 A 
ATOM      2  N   UNL     1      -8.537  -5.166  18.342  0.00  0.00    +0.000 N 
ATOM      3  C   UNL     1      -7.890  -6.278  18.041  0.00  0.00    +0.000 A 
ATOM      4  N   UNL     1      -8.442  -7.301  17.384  0.00  0.00    +0.000 NA
ATOM      5  C   UNL     1      -9.735  -7.169  17.016  0.00  0.00    +0.000 A 
ATOM      6  N   UNL     1     -10.361  -8.240  16.334  0.00  0.00    +0.000 N 
ATOM      7  C   UNL     1      -9.810  -9.535  16.293  0.00  0.00    +0.000 A 
ATOM      8  C   UNL     1      -9.419 -10.171  17.474  0.00  0.00    +0.000 A 
ATOM      9  C   UNL     1      -8.814 -11.420  17.412  0.00  0.00    +0.000 A 
ATOM     10  C   UNL     1      -8.635 -12.014  16.174  0.00  0.00    +0.000 A 
ATOM     11  C   UNL     1      -9.090 -11.336  15.053  0.00  0.00    +0.000 A 
ATOM     12  N   UNL     1      -9.680 -10.116  15.088  0.00  0.00    +0.000 NA
ATOM     13  C   UNL     1     -10.501  -6.031  17.339  0.00  0.00    +0.000 A 
ATOM     14  H   UNL     1      -8.091  -4.431  18.895  0.00  0.00    +0.000 HD
ATOM     15  H   UNL     1      -6.863  -6.376  18.374  0.00  0.00    +0.000 HD
ATOM     16  H   UNL     1     -10.570  -7.981  15.372  0.00  0.00    +0.000 HD
ATOM     17  H   UNL     1      -9.569  -9.691  18.436  0.00  0.00    +0.000 HD
ATOM     18  H   UNL     1      -8.483 -11.914  18.320  0.00  0.00    +0.000 HD
ATOM     19  H   UNL     1      -8.157 -12.984  16.084  0.00  0.00    +0.000 HD
ATOM     20  H   UNL     1      -8.982 -11.772  14.063  0.00  0.00    +0.000 HD
ENDROOT
BRANCH   1  28
ATOM     21  C   UNL     1      -7.416  -2.568  21.902  0.00  0.00    +0.000 A 
ATOM     22  C   UNL     1      -7.396  -1.754  23.048  0.00  0.00    +0.000 A 
ATOM     23  C   UNL     1      -8.470  -0.925  23.363  0.00  0.00    +0.000 A 
ATOM     24  C   UNL     1      -9.604  -0.871  22.549  0.00  0.00    +0.000 A 
ATOM     25  C   UNL     1      -9.630  -1.682  21.408  0.00  0.00    +0.000 A 
ATOM     26  S   UNL     1     -10.877  -1.860  20.228  0.00  0.00    +0.000 S 
ATOM     27  C   UNL     1      -9.970  -3.079  19.452  0.00  0.00    +0.000 A 
ATOM     28  N   UNL     1     -10.471  -3.831  18.445  0.00  0.00    +0.000 N 
ATOM     29  N   UNL     1      -8.761  -3.287  19.934  0.00  0.00    +0.000 NA
ATOM     30  C   UNL     1      -8.566  -2.522  21.077  0.00  0.00    +0.000 A 
ATOM     31  H   UNL     1      -6.533  -1.769  23.714  0.00  0.00    +0.000 HD
ATOM     32  H   UNL     1      -8.428  -0.311  24.263  0.00  0.00    +0.000 HD
ATOM     33  H   UNL     1     -10.443  -0.233  22.808  0.00  0.00    +0.000 HD
ATOM     34  H   UNL     1     -11.378  -3.626  18.042  0.00  0.00    +0.000 HD
BRANCH  21  35
ATOM     35  C   UNL     1      -6.258  -3.480  21.609  0.00  0.00    +0.000 C 
ATOM     36  H   UNL     1      -6.129  -4.242  22.385  0.00  0.00    +0.000 HD
ATOM     37  H   UNL     1      -5.329  -2.903  21.545  0.00  0.00    +0.000 HD
ATOM     38  H   UNL     1      -6.420  -3.991  20.654  0.00  0.00    +0.000 HD
ENDBRANCH  21  35
ENDBRANCH   1  28
BRANCH  13  39
ATOM     39  N   UNL     1     -11.837  -5.892  16.896  0.00  0.00    +0.000 N 
ATOM     40  H   UNL     1     -12.498  -6.307  17.562  0.00  0.00    +0.000 HD
ATOM     41  H   UNL     1     -12.136  -4.950  16.662  0.00  0.00    +0.000 HD
ENDBRANCH  13  39
TORSDOF 3
ENDMDL
MODEL 5
REMARK VINA RESULT:   -10.104      2.971      4.346
REMARK INTER + INTRA:         -11.807
REMARK INTER:                 -11.754
REMARK INTRA:                  -0.053
REMARK UNBOUND:                -0.522
REMARK  Name = 
REMARK  3 active torsions:
REMARK  status: ('A' for Active; 'I' for Inactive)
REMARK    1  A    between atoms: C_1  and  C_2
REMARK    2  A    between atoms: N_9  and  C_10
REMARK    3  A    between atoms: C_22  and  N_23
REMARK                            x       y       z     vdW  Elec       q    Type
REMARK                         _______ _______ _______ _____ _____    ______ ____
ROOT
ATOM      1  C   UNL     1     -10.219  -6.404  17.769  0.00  0.00    +0.000 A 
ATOM      2  N   UNL     1     -11.474  -6.003  18.038  0.00  0.00    +0.000 N 
ATOM      3  C   UNL     1     -12.097  -5.126  17.271  0.00  0.00    +0.000 A 
ATOM      4  N   UNL     1     -11.551  -4.569  16.188  0.00  0.00    +0.000 NA
ATOM      5  C   UNL     1     -10.289  -4.940  15.877  0.00  0.00    +0.000 A 
ATOM      6  N   UNL     1      -9.668  -4.358  14.746  0.00  0.00    +0.000 N 
ATOM      7  C   UNL     1     -10.172  -3.203  14.118  0.00  0.00    +0.000 A 
ATOM      8  C   UNL     1     -10.464  -2.062  14.871  0.00  0.00    +0.000 A 
ATOM      9  C   UNL     1     -11.025  -0.955  14.249  0.00  0.00    +0.000 A 
ATOM     10  C   UNL     1     -11.259  -1.004  12.884  0.00  0.00    +0.000 A 
ATOM     11  C   UNL     1     -10.901  -2.156  12.202  0.00  0.00    +0.000 A 
ATOM     12  N   UNL     1     -10.356  -3.250  12.788  0.00  0.00    +0.000 NA
ATOM     13  C   UNL     1      -9.547  -5.837  16.671  0.00  0.00    +0.000 A 
ATOM     14  H   UNL     1     -11.912  -6.362  18.890  0.00  0.00    +0.000 HD
ATOM     15  H   UNL     1     -13.097  -4.819  17.556  0.00  0.00    +0.000 HD
ATOM     16  H   UNL     1      -9.529  -5.052  14.014  0.00  0.00    +0.000 HD
ATOM     17  H   UNL     1     -10.271  -2.042  15.939  0.00  0.00    +0.000 HD
ATOM     18  H   UNL     1     -11.279  -0.072  14.826  0.00  0.00    +0.000 HD
ATOM     19  H   UNL     1     -11.705  -0.163  12.364  0.00  0.00    +0.000 HD
ATOM     20  H   UNL     1     -11.056  -2.232  11.128  0.00  0.00    +0.000 HD
ENDROOT
BRANCH   1  28
ATOM     21  C   UNL     1      -9.006 -11.081  15.882  0.00  0.00    +0.000 A 
ATOM     22  C   UNL     1      -8.759 -12.458  16.015  0.00  0.00    +0.000 A 
ATOM     23  C   UNL     1      -8.481 -13.026  17.256  0.00  0.00    +0.000 A 
ATOM     24  C   UNL     1      -8.436 -12.246  18.413  0.00  0.00    +0.000 A 
ATOM     25  C   UNL     1      -8.683 -10.873  18.288  0.00  0.00    +0.000 A 
ATOM     26  S   UNL     1      -8.722  -9.658  19.513  0.00  0.00    +0.000 S 
ATOM     27  C   UNL     1      -9.199  -8.501  18.352  0.00  0.00    +0.000 A 
ATOM     28  N   UNL     1      -9.588  -7.251  18.687  0.00  0.00    +0.000 N 
ATOM     29  N   UNL     1      -9.222  -8.921  17.103  0.00  0.00    +0.000 NA
ATOM     30  C   UNL     1      -8.966 -10.286  17.054  0.00  0.00    +0.000 A 
ATOM     31  H   UNL     1      -8.790 -13.105  15.138  0.00  0.00    +0.000 HD
ATOM     32  H   UNL     1      -8.302 -14.100  17.327  0.00  0.00    +0.000 HD
ATOM     33  H   UNL     1      -8.231 -12.697  19.379  0.00  0.00    +0.000 HD
ATOM     34  H   UNL     1      -9.512  -6.918  19.641  0.00  0.00    +0.000 HD
BRANCH  21  35
ATOM     35  C   UNL     1      -9.340 -10.504  14.536  0.00  0.00    +0.000 C 
ATOM     36  H   UNL     1     -10.416 -10.521  14.338  0.00  0.00    +0.000 HD
ATOM     37  H   UNL     1      -8.842 -11.077  13.745  0.00  0.00    +0.000 HD
ATOM     38  H   UNL     1      -9.000  -9.464  14.482  0.00  0.00    +0.000 HD
ENDBRANCH  21  35
ENDBRANCH   1  28
BRANCH  13  39
ATOM     39  N   UNL     1      -8.247  -6.251  16.296  0.00  0.00    +0.000 N 
ATOM     40  H   UNL     1      -8.275  -7.101  15.722  0.00  0.00    +0.000 HD
ATOM     41  H   UNL     1      -7.668  -5.551  15.841  0.00  0.00    +0.000 HD
ENDBRANCH  13  39
TORSDOF 3
ENDMDL
MODEL 6
REMARK VINA RESULT:    -9.856      1.914      2.953
REMARK INTER + INTRA:         -11.530
REMARK INTER:                 -10.982
REMARK INTRA:                  -0.548
REMARK UNBOUND:                -0.522
REMARK  Name = 
REMARK  3 active torsions:
REMARK  status: ('A' for Active; 'I' for Inactive)
REMARK    1  A    between atoms: C_1  and  C_2
REMARK    2  A    between atoms: N_9  and  C_10
REMARK    3  A    between atoms: C_22  and  N_23
REMARK                            x       y       z     vdW  Elec       q    Type
REMARK                         _______ _______ _______ _____ _____    ______ ____
ROOT
ATOM      1  C   UNL     1      -9.613  -7.143  18.734  0.00  0.00    +0.000 A 
ATOM      2  N   UNL     1     -10.831  -7.207  18.167  0.00  0.00    +0.000 N 
ATOM      3  C   UNL     1     -11.444  -6.124  17.724  0.00  0.00    +0.000 A 
ATOM      4  N   UNL     1     -10.925  -4.896  17.799  0.00  0.00    +0.000 NA
ATOM      5  C   UNL     1      -9.703  -4.779  18.363  0.00  0.00    +0.000 A 
ATOM      6  N   UNL     1      -9.127  -3.492  18.478  0.00  0.00    +0.000 N 
ATOM      7  C   UNL     1      -9.878  -2.311  18.321  0.00  0.00    +0.000 A 
ATOM      8  C   UNL     1     -11.065  -2.131  19.038  0.00  0.00    +0.000 A 
ATOM      9  C   UNL     1     -11.830  -0.993  18.822  0.00  0.00    +0.000 A 
ATOM     10  C   UNL     1     -11.381  -0.049  17.912  0.00  0.00    +0.000 A 
ATOM     11  C   UNL     1     -10.172  -0.282  17.275  0.00  0.00    +0.000 A 
ATOM     12  N   UNL     1      -9.410  -1.386  17.466  0.00  0.00    +0.000 NA
ATOM     13  C   UNL     1      -9.007  -5.883  18.896  0.00  0.00    +0.000 A 
ATOM     14  H   UNL     1     -11.290  -8.121  18.139  0.00  0.00    +0.000 HD
ATOM     15  H   UNL     1     -12.437  -6.236  17.304  0.00  0.00    +0.000 HD
ATOM     16  H   UNL     1      -8.315  -3.404  17.870  0.00  0.00    +0.000 HD
ATOM     17  H   UNL     1     -11.399  -2.880  19.748  0.00  0.00    +0.000 HD
ATOM     18  H   UNL     1     -12.766  -0.852  19.354  0.00  0.00    +0.000 HD
ATOM     19  H   UNL     1     -11.956   0.848  17.709  0.00  0.00    +0.000 HD
ATOM     20  H   UNL     1      -9.776   0.438  16.563  0.00  0.00    +0.000 HD
ENDROOT
BRANCH   1  28
ATOM     21  C   UNL     1      -8.908 -10.962  15.297  0.00  0.00    +0.000 A 
ATOM     22  C   UNL     1      -8.811 -12.316  14.933  0.00  0.00    +0.000 A 
ATOM     23  C   UNL     1      -8.596 -13.307  15.888  0.00  0.00    +0.000 A 
ATOM     24  C   UNL     1      -8.467 -12.989  17.242  0.00  0.00    +0.000 A 
ATOM     25  C   UNL     1      -8.566 -11.642  17.610  0.00  0.00    +0.000 A 
ATOM     26  S   UNL     1      -8.474 -10.934  19.182  0.00  0.00    +0.000 S 
ATOM     27  C   UNL     1      -8.825  -9.402  18.514  0.00  0.00    +0.000 A 
ATOM     28  N   UNL     1      -9.077  -8.315  19.277  0.00  0.00    +0.000 N 
ATOM     29  N   UNL     1      -8.892  -9.355  17.198  0.00  0.00    +0.000 NA
ATOM     30  C   UNL     1      -8.784 -10.635  16.669  0.00  0.00    +0.000 A 
ATOM     31  H   UNL     1      -8.912 -12.610  13.888  0.00  0.00    +0.000 HD
ATOM     32  H   UNL     1      -8.533 -14.350  15.576  0.00  0.00    +0.000 HD
ATOM     33  H   UNL     1      -8.313 -13.767  17.983  0.00  0.00    +0.000 HD
ATOM     34  H   UNL     1      -8.966  -8.346  20.283  0.00  0.00    +0.000 HD
BRANCH  21  35
ATOM     35  C   UNL     1      -9.178  -9.921  14.247  0.00  0.00    +0.000 C 
ATOM     36  H   UNL     1      -8.665  -8.979  14.463  0.00  0.00    +0.000 HD
ATOM     37  H   UNL     1     -10.253  -9.715  14.187  0.00  0.00    +0.000 HD
ATOM     38  H   UNL     1      -8.835 -10.280  13.271  0.00  0.00    +0.000 HD
ENDBRANCH  21  35
ENDBRANCH   1  28
BRANCH  13  39
ATOM     39  N   UNL     1      -7.706  -5.744  19.433  0.00  0.00    +0.000 N 
ATOM     40  H   UNL     1      -7.410  -4.762  19.450  0.00  0.00    +0.000 HD
ATOM     41  H   UNL     1      -7.551  -6.162  20.346  0.00  0.00    +0.000 HD
ENDBRANCH  13  39
TORSDOF 3
ENDMDL
MODEL 7
REMARK VINA RESULT:    -9.650      3.119      8.543
REMARK INTER + INTRA:         -11.299
REMARK INTER:                 -11.143
REMARK INTRA:                  -0.157
REMARK UNBOUND:                -0.522
REMARK  Name = 
REMARK  3 active torsions:
REMARK  status: ('A' for Active; 'I' for Inactive)
REMARK    1  A    between atoms: C_1  and  C_2
REMARK    2  A    between atoms: N_9  and  C_10
REMARK    3  A    between atoms: C_22  and  N_23
REMARK                            x       y       z     vdW  Elec       q    Type
REMARK                         _______ _______ _______ _____ _____    ______ ____
ROOT
ATOM      1  C   UNL     1      -9.868  -5.492  17.996  0.00  0.00    +0.000 A 
ATOM      2  N   UNL     1      -8.536  -5.567  18.163  0.00  0.00    +0.000 N 
ATOM      3  C   UNL     1      -7.858  -6.651  17.828  0.00  0.00    +0.000 A 
ATOM      4  N   UNL     1      -8.421  -7.744  17.306  0.00  0.00    +0.000 NA
ATOM      5  C   UNL     1      -9.759  -7.718  17.120  0.00  0.00    +0.000 A 
ATOM      6  N   UNL     1     -10.394  -8.864  16.587  0.00  0.00    +0.000 N 
ATOM      7  C   UNL     1      -9.762 -10.122  16.531  0.00  0.00    +0.000 A 
ATOM      8  C   UNL     1      -9.166 -10.661  17.675  0.00  0.00    +0.000 A 
ATOM      9  C   UNL     1      -8.487 -11.869  17.588  0.00  0.00    +0.000 A 
ATOM     10  C   UNL     1      -8.439 -12.522  16.367  0.00  0.00    +0.000 A 
ATOM     11  C   UNL     1      -9.093 -11.941  15.291  0.00  0.00    +0.000 A 
ATOM     12  N   UNL     1      -9.759 -10.763  15.350  0.00  0.00    +0.000 NA
ATOM     13  C   UNL     1     -10.553  -6.614  17.493  0.00  0.00    +0.000 A 
ATOM     14  H   UNL     1      -8.072  -4.773  18.611  0.00  0.00    +0.000 HD
ATOM     15  H   UNL     1      -6.791  -6.663  18.015  0.00  0.00    +0.000 HD
ATOM     16  H   UNL     1     -10.753  -8.676  15.653  0.00  0.00    +0.000 HD
ATOM     17  H   UNL     1      -9.216 -10.136  18.623  0.00  0.00    +0.000 HD
ATOM     18  H   UNL     1      -7.999 -12.287  18.463  0.00  0.00    +0.000 HD
ATOM     19  H   UNL     1      -7.909 -13.462  16.257  0.00  0.00    +0.000 HD
ATOM     20  H   UNL     1      -9.092 -12.426  14.318  0.00  0.00    +0.000 HD
ENDROOT
BRANCH   1  28
ATOM     21  C   UNL     1     -11.926  -2.494  14.298  0.00  0.00    +0.000 A 
ATOM     22  C   UNL     1     -12.359  -1.259  13.785  0.00  0.00    +0.000 A 
ATOM     23  C   UNL     1     -12.602  -0.173  14.624  0.00  0.00    +0.000 A 
ATOM     24  C   UNL     1     -12.424  -0.275  16.005  0.00  0.00    +0.000 A 
ATOM     25  C   UNL     1     -11.990  -1.502  16.521  0.00  0.00    +0.000 A 
ATOM     26  S   UNL     1     -11.659  -1.938  18.158  0.00  0.00    +0.000 S 
ATOM     27  C   UNL     1     -11.127  -3.475  17.642  0.00  0.00    +0.000 A 
ATOM     28  N   UNL     1     -10.529  -4.356  18.475  0.00  0.00    +0.000 N 
ATOM     29  N   UNL     1     -11.282  -3.733  16.359  0.00  0.00    +0.000 NA
ATOM     30  C   UNL     1     -11.740  -2.600  15.698  0.00  0.00    +0.000 A 
ATOM     31  H   UNL     1     -12.505  -1.134  12.712  0.00  0.00    +0.000 HD
ATOM     32  H   UNL     1     -12.929   0.775  14.195  0.00  0.00    +0.000 HD
ATOM     33  H   UNL     1     -12.601   0.579  16.652  0.00  0.00    +0.000 HD
ATOM     34  H   UNL     1     -10.466  -4.175  19.470  0.00  0.00    +0.000 HD
BRANCH  21  35
ATOM     35  C   UNL     1     -11.638  -3.635  13.363  0.00  0.00    +0.000 C 
ATOM     36  H   UNL     1     -12.257  -3.593  12.462  0.00  0.00    +0.000 HD
ATOM     37  H   UNL     1     -11.832  -4.590  13.863  0.00  0.00    +0.000 HD
ATOM     38  H   UNL     1     -10.587  -3.606  13.056  0.00  0.00    +0.000 HD
ENDBRANCH  21  35
ENDBRANCH   1  28
BRANCH  13  39
ATOM     39  N   UNL     1     -11.944  -6.589  17.239  0.00  0.00    +0.000 N 
ATOM     40  H   UNL     1     -12.331  -5.647  17.363  0.00  0.00    +0.000 HD
ATOM     41  H   UNL     1     -12.242  -6.964  16.343  0.00  0.00    +0.000 HD
ENDBRANCH  13  39
TORSDOF 3
ENDMDL
MODEL 8
REMARK VINA RESULT:    -9.625      2.531      3.292
REMARK INTER + INTRA:         -11.272
REMARK INTER:                 -11.232
REMARK INTRA:                  -0.040
REMARK UNBOUND:                -0.522
REMARK  Name = 
REMARK  3 active torsions:
REMARK  status: ('A' for Active; 'I' for Inactive)
REMARK    1  A    between atoms: C_1  and  C_2
REMARK    2  A    between atoms: N_9  and  C_10
REMARK    3  A    between atoms: C_22  and  N_23
REMARK                            x       y       z     vdW  Elec       q    Type
REMARK                         _______ _______ _______ _____ _____    ______ ____
ROOT
ATOM      1  C   UNL     1      -9.220  -6.844  19.386  0.00  0.00    +0.000 A 
ATOM      2  N   UNL     1      -8.320  -5.866  19.587  0.00  0.00    +0.000 N 
ATOM      3  C   UNL     1      -8.511  -4.646  19.116  0.00  0.00    +0.000 A 
ATOM      4  N   UNL     1      -9.587  -4.283  18.414  0.00  0.00    +0.000 NA
ATOM      5  C   UNL     1     -10.521  -5.232  18.185  0.00  0.00    +0.000 A 
ATOM      6  N   UNL     1     -11.666  -4.891  17.428  0.00  0.00    +0.000 N 
ATOM      7  C   UNL     1     -11.738  -3.719  16.651  0.00  0.00    +0.000 A 
ATOM      8  C   UNL     1     -10.723  -3.417  15.739  0.00  0.00    +0.000 A 
ATOM      9  C   UNL     1     -10.772  -2.224  15.029  0.00  0.00    +0.000 A 
ATOM     10  C   UNL     1     -11.846  -1.371  15.231  0.00  0.00    +0.000 A 
ATOM     11  C   UNL     1     -12.833  -1.765  16.122  0.00  0.00    +0.000 A 
ATOM     12  N   UNL     1     -12.805  -2.922  16.827  0.00  0.00    +0.000 NA
ATOM     13  C   UNL     1     -10.366  -6.565  18.619  0.00  0.00    +0.000 A 
ATOM     14  H   UNL     1      -7.455  -6.114  20.072  0.00  0.00    +0.000 HD
ATOM     15  H   UNL     1      -7.735  -3.908  19.284  0.00  0.00    +0.000 HD
ATOM     16  H   UNL     1     -12.501  -4.906  18.012  0.00  0.00    +0.000 HD
ATOM     17  H   UNL     1      -9.892  -4.098  15.592  0.00  0.00    +0.000 HD
ATOM     18  H   UNL     1      -9.979  -1.966  14.336  0.00  0.00    +0.000 HD
ATOM     19  H   UNL     1     -11.914  -0.426  14.703  0.00  0.00    +0.000 HD
ATOM     20  H   UNL     1     -13.699  -1.132  16.300  0.00  0.00    +0.000 HD
ENDROOT
BRANCH   1  28
ATOM     21  C   UNL     1      -8.823 -10.344  15.579  0.00  0.00    +0.000 A 
ATOM     22  C   UNL     1      -8.895 -11.652  15.069  0.00  0.00    +0.000 A 
ATOM     23  C   UNL     1      -8.892 -12.759  15.915  0.00  0.00    +0.000 A 
ATOM     24  C   UNL     1      -8.817 -12.607  17.301  0.00  0.00    +0.000 A 
ATOM     25  C   UNL     1      -8.748 -11.306  17.815  0.00  0.00    +0.000 A 
ATOM     26  S   UNL     1      -8.669 -10.789  19.460  0.00  0.00    +0.000 S 
ATOM     27  C   UNL     1      -8.749  -9.161  18.953  0.00  0.00    +0.000 A 
ATOM     28  N   UNL     1      -8.897  -8.135  19.820  0.00  0.00    +0.000 N 
ATOM     29  N   UNL     1      -8.714  -8.966  17.650  0.00  0.00    +0.000 NA
ATOM     30  C   UNL     1      -8.752 -10.185  16.985  0.00  0.00    +0.000 A 
ATOM     31  H   UNL     1      -8.961 -11.816  13.993  0.00  0.00    +0.000 HD
ATOM     32  H   UNL     1      -8.957 -13.761  15.489  0.00  0.00    +0.000 HD
ATOM     33  H   UNL     1      -8.829 -13.473  17.956  0.00  0.00    +0.000 HD
ATOM     34  H   UNL     1      -8.864  -8.287  20.821  0.00  0.00    +0.000 HD
BRANCH  21  35
ATOM     35  C   UNL     1      -8.866  -9.170  14.642  0.00  0.00    +0.000 C 
ATOM     36  H   UNL     1      -8.443  -9.412  13.662  0.00  0.00    +0.000 HD
ATOM     37  H   UNL     1      -8.296  -8.333  15.060  0.00  0.00    +0.000 HD
ATOM     38  H   UNL     1      -9.903  -8.849  14.496  0.00  0.00    +0.000 HD
ENDBRANCH  21  35
ENDBRANCH   1  28
BRANCH  13  39
ATOM     39  N   UNL     1     -11.381  -7.528  18.413  0.00  0.00    +0.000 N 
ATOM     40  H   UNL     1     -11.551  -8.081  19.261  0.00  0.00    +0.000 HD
ATOM     41  H   UNL     1     -12.264  -7.178  18.052  0.00  0.00    +0.000 HD
ENDBRANCH  13  39
TORSDOF 3
ENDMDL
MODEL 9
REMARK VINA RESULT:    -9.555      2.759      8.641
REMARK INTER + INTRA:         -11.194
REMARK INTER:                 -10.943
REMARK INTRA:                  -0.251
REMARK UNBOUND:                -0.522
REMARK  Name = 
REMARK  3 active torsions:
REMARK  status: ('A' for Active; 'I' for Inactive)
REMARK    1  A    between atoms: C_1  and  C_2
REMARK    2  A    between atoms: N_9  and  C_10
REMARK    3  A    between atoms: C_22  and  N_23
REMARK                            x       y       z     vdW  Elec       q    Type
REMARK                         _______ _______ _______ _____ _____    ______ ____
ROOT
ATOM      1  C   UNL     1     -10.571  -6.822  18.236  0.00  0.00    +0.000 A 
ATOM      2  N   UNL     1     -11.513  -7.054  17.305  0.00  0.00    +0.000 N 
ATOM      3  C   UNL     1     -11.573  -8.203  16.656  0.00  0.00    +0.000 A 
ATOM      4  N   UNL     1     -10.724  -9.213  16.859  0.00  0.00    +0.000 NA
ATOM      5  C   UNL     1      -9.758  -9.028  17.785  0.00  0.00    +0.000 A 
ATOM      6  N   UNL     1      -8.827 -10.068  18.015  0.00  0.00    +0.000 N 
ATOM      7  C   UNL     1      -8.667 -11.149  17.128  0.00  0.00    +0.000 A 
ATOM      8  C   UNL     1      -8.466 -10.916  15.764  0.00  0.00    +0.000 A 
ATOM      9  C   UNL     1      -8.378 -11.992  14.891  0.00  0.00    +0.000 A 
ATOM     10  C   UNL     1      -8.470 -13.277  15.402  0.00  0.00    +0.000 A 
ATOM     11  C   UNL     1      -8.626 -13.423  16.772  0.00  0.00    +0.000 A 
ATOM     12  N   UNL     1      -8.717 -12.389  17.643  0.00  0.00    +0.000 NA
ATOM     13  C   UNL     1      -9.606  -7.814  18.486  0.00  0.00    +0.000 A 
ATOM     14  H   UNL     1     -12.150  -6.287  17.078  0.00  0.00    +0.000 HD
ATOM     15  H   UNL     1     -12.336  -8.319  15.895  0.00  0.00    +0.000 HD
ATOM     16  H   UNL     1      -8.957 -10.469  18.943  0.00  0.00    +0.000 HD
ATOM     17  H   UNL     1      -8.393  -9.903  15.382  0.00  0.00    +0.000 HD
ATOM     18  H   UNL     1      -8.246 -11.825  13.826  0.00  0.00    +0.000 HD
ATOM     19  H   UNL     1      -8.417 -14.142  14.750  0.00  0.00    +0.000 HD
ATOM     20  H   UNL     1      -8.690 -14.413  17.217  0.00  0.00    +0.000 HD
ENDROOT
BRANCH   1  28
ATOM     21  C   UNL     1     -10.969  -2.948  14.810  0.00  0.00    +0.000 A 
ATOM     22  C   UNL     1     -10.718  -1.637  14.369  0.00  0.00    +0.000 A 
ATOM     23  C   UNL     1     -10.302  -0.644  15.252  0.00  0.00    +0.000 A 
ATOM     24  C   UNL     1     -10.119  -0.917  16.610  0.00  0.00    +0.000 A 
ATOM     25  C   UNL     1     -10.364  -2.221  17.055  0.00  0.00    +0.000 A 
ATOM     26  S   UNL     1     -10.212  -2.875  18.645  0.00  0.00    +0.000 S 
ATOM     27  C   UNL     1     -10.601  -4.426  18.046  0.00  0.00    +0.000 A 
ATOM     28  N   UNL     1     -10.505  -5.543  18.801  0.00  0.00    +0.000 N 
ATOM     29  N   UNL     1     -10.947  -4.477  16.775  0.00  0.00    +0.000 NA
ATOM     30  C   UNL     1     -10.780  -3.230  16.185  0.00  0.00    +0.000 A 
ATOM     31  H   UNL     1     -10.842  -1.382  13.316  0.00  0.00    +0.000 HD
ATOM     32  H   UNL     1     -10.108   0.361  14.878  0.00  0.00    +0.000 HD
ATOM     33  H   UNL     1      -9.782  -0.142  17.291  0.00  0.00    +0.000 HD
ATOM     34  H   UNL     1     -10.296  -5.489  19.791  0.00  0.00    +0.000 HD
BRANCH  21  35
ATOM     35  C   UNL     1     -11.381  -4.006  13.826  0.00  0.00    +0.000 C 
ATOM     36  H   UNL     1     -12.200  -3.669  13.182  0.00  0.00    +0.000 HD
ATOM     37  H   UNL     1     -11.715  -4.905  14.355  0.00  0.00    +0.000 HD
ATOM     38  H   UNL     1     -10.531  -4.270  13.187  0.00  0.00    +0.000 HD
ENDBRANCH  21  35
ENDBRANCH   1  28
BRANCH  13  39
ATOM     39  N   UNL     1      -8.620  -7.662  19.489  0.00  0.00    +0.000 N 
ATOM     40  H   UNL     1      -7.674  -7.755  19.103  0.00  0.00    +0.000 HD
ATOM     41  H   UNL     1      -8.678  -6.817  20.049  0.00  0.00    +0.000 HD
ENDBRANCH  13  39
TORSDOF 3
ENDMDL
