MODEL 1
REMARK VINA RESULT:   -10.599      0.000      0.000
REMARK INTER + INTRA:         -13.416
REMARK INTER:                 -14.007
REMARK INTRA:                   0.591
REMARK UNBOUND:                 0.591
REMARK  Name = 
REMARK  7 active torsions:
REMARK  status: ('A' for Active; 'I' for Inactive)
REMARK    1  A    between atoms: C_1  and  C_2
REMARK    2  A    between atoms: C_4  and  C_5
REMARK    3  A    between atoms: C_10  and  C_11
REMARK    4  A    between atoms: C_17  and  C_18
REMARK    5  A    between atoms: C_20  and  N_21
REMARK    6  A    between atoms: N_21  and  C_22
REMARK    7  A    between atoms: C_22  and  C_23
REMARK                            x       y       z     vdW  Elec       q    Type
REMARK                         _______ _______ _______ _____ _____    ______ ____
ROOT
ATOM      1  C   UNL     1      -9.023  -7.123  15.766  0.00  0.00    +0.000 A 
ATOM      2  N   UNL     1      -7.733  -7.022  16.298  0.00  0.00    +0.000 NA
ATOM      3  C   UNL     1      -7.892  -6.243  17.355  0.00  0.00    +0.000 A 
ATOM      4  C   UNL     1      -7.116  -6.078  18.532  0.00  0.00    +0.000 A 
ATOM      5  C   UNL     1      -7.637  -5.415  19.581  0.00  0.00    +0.000 A 
ATOM      6  C   UNL     1      -8.981  -4.859  19.544  0.00  0.00    +0.000 A 
ATOM      7  C   UNL     1      -9.725  -4.967  18.421  0.00  0.00    +0.000 A 
ATOM      8  N   UNL     1      -9.144  -5.622  17.317  0.00  0.00    +0.000 N 
ATOM      9  C   UNL     1      -9.615  -5.878  16.030  0.00  0.00    +0.000 A 
ATOM     10  H   UNL     1      -6.138  -6.544  18.576  0.00  0.00    +0.000 HD
ATOM     11  H   UNL     1      -7.078  -5.321  20.507  0.00  0.00    +0.000 HD
ATOM     12  H   UNL     1      -9.375  -4.416  20.453  0.00  0.00    +0.000 HD
ENDROOT
BRANCH   1  20
ATOM     13  C   UNL     1      -8.745 -13.170  15.509  0.00  0.00    +0.000 A 
ATOM     14  C   UNL     1      -8.389 -13.256  16.862  0.00  0.00    +0.000 A 
ATOM     15  C   UNL     1      -8.547 -12.162  17.723  0.00  0.00    +0.000 A 
ATOM     16  C   UNL     1      -9.078 -10.973  17.200  0.00  0.00    +0.000 A 
ATOM     17  N   UNL     1      -9.380  -9.897  18.044  0.00  0.00    +0.000 N 
ATOM     18  C   UNL     1      -9.857  -8.696  17.588  0.00  0.00    +0.000 A 
ATOM     19  O   UNL     1     -10.361  -7.890  18.362  0.00  0.00    +0.000 OA
ATOM     20  C   UNL     1      -9.627  -8.408  16.131  0.00  0.00    +0.000 A 
ATOM     21  C   UNL     1      -9.562  -9.475  15.296  0.00  0.00    +0.000 A 
ATOM     22  C   UNL     1      -9.349 -10.834  15.830  0.00  0.00    +0.000 A 
ATOM     23  C   UNL     1      -9.201 -11.945  14.992  0.00  0.00    +0.000 A 
ATOM     24  H   UNL     1      -7.976 -14.187  17.249  0.00  0.00    +0.000 HD
ATOM     25  H   UNL     1      -9.404 -10.025  19.045  0.00  0.00    +0.000 HD
ATOM     26  H   UNL     1      -9.306  -9.329  14.248  0.00  0.00    +0.000 HD
ATOM     27  H   UNL     1      -9.408 -11.858  13.928  0.00  0.00    +0.000 HD
BRANCH  13  28
ATOM     28  C   UNL     1      -8.607 -14.370  14.616  0.00  0.00    +0.000 C 
ATOM     29  H   UNL     1      -7.573 -14.735  14.590  0.00  0.00    +0.000 HD
ATOM     30  H   UNL     1      -8.897 -14.121  13.590  0.00  0.00    +0.000 HD
ATOM     31  H   UNL     1      -9.236 -15.187  14.984  0.00  0.00    +0.000 HD
ENDBRANCH  13  28
BRANCH  15  32
ATOM     32  C   UNL     1      -8.061 -12.256  19.142  0.00  0.00    +0.000 C 
ATOM     33  H   UNL     1      -8.893 -12.324  19.852  0.00  0.00    +0.000 HD
ATOM     34  H   UNL     1      -7.465 -11.379  19.409  0.00  0.00    +0.000 HD
ATOM     35  H   UNL     1      -7.454 -13.160  19.265  0.00  0.00    +0.000 HD
ENDBRANCH  15  32
ENDBRANCH   1  20
BRANCH   7  36
ATOM     36  C   UNL     1     -11.168  -4.556  18.381  0.00  0.00    +0.000 C 
ATOM     37  H   UNL     1     -11.606  -4.534  19.386  0.00  0.00    +0.000 HD
ATOM     38  H   UNL     1     -11.750  -5.275  17.793  0.00  0.00    +0.000 HD
ATOM     39  H   UNL     1     -11.309  -3.561  17.958  0.00  0.00    +0.000 HD
ENDBRANCH   7  36
BRANCH   9  40
ATOM     40  N   UNL     1     -10.270  -4.920  15.310  0.00  0.00    +0.000 N 
ATOM     41  H   UNL     1     -11.270  -4.793  15.443  0.00  0.00    +0.000 HD
BRANCH  40  42
ATOM     42  C   UNL     1      -9.832  -4.475  13.996  0.00  0.00    +0.000 C 
ATOM     43  H   UNL     1      -9.505  -5.350  13.425  0.00  0.00    +0.000 HD
ATOM     44  H   UNL     1      -8.979  -3.793  14.085  0.00  0.00    +0.000 HD
BRANCH  42  45
ATOM     45  C   UNL     1     -10.913  -3.779  13.218  0.00  0.00    +0.000 A 
ATOM     46  C   UNL     1     -11.772  -2.733  13.502  0.00  0.00    +0.000 A 
ATOM     47  C   UNL     1     -12.548  -2.516  12.336  0.00  0.00    +0.000 A 
ATOM     48  C   UNL     1     -12.132  -3.454  11.422  0.00  0.00    +0.000 A 
ATOM     49  O   UNL     1     -11.149  -4.230  11.949  0.00  0.00    +0.000 OA
ATOM     50  H   UNL     1     -11.821  -2.189  14.435  0.00  0.00    +0.000 HD
ATOM     51  H   UNL     1     -13.311  -1.767  12.177  0.00  0.00    +0.000 HD
ATOM     52  H   UNL     1     -12.417  -3.687  10.406  0.00  0.00    +0.000 HD
ENDBRANCH  42  45
ENDBRANCH  40  42
ENDBRANCH   9  40
TORSDOF 7
ENDMDL
MODEL 2
REMARK VINA RESULT:    -9.752      3.230      8.163
REMARK INTER + INTRA:         -12.297
REMARK INTER:                 -11.535
REMARK INTRA:                  -0.763
REMARK UNBOUND:                 0.591
REMARK  Name = 
REMARK  7 active torsions:
REMARK  status: ('A' for Active; 'I' for Inactive)
REMARK    1  A    between atoms: C_1  and  C_2
REMARK    2  A    between atoms: C_4  and  C_5
REMARK    3  A    between atoms: C_10  and  C_11
REMARK    4  A    between atoms: C_17  and  C_18
REMARK    5  A    between atoms: C_20  and  N_21
REMARK    6  A    between atoms: N_21  and  C_22
REMARK    7  A    between atoms: C_22  and  C_23
REMARK                            x       y       z     vdW  Elec       q    Type
REMARK                         _______ _______ _______ _____ _____    ______ ____
ROOT
ATOM      1  C   UNL     1      -7.392  -6.390  19.132  0.00  0.00    +0.000 A 
ATOM      2  N   UNL     1      -6.979  -6.475  17.797  0.00  0.00    +0.000 NA
ATOM      3  C   UNL     1      -8.112  -6.626  17.130  0.00  0.00    +0.000 A 
ATOM      4  C   UNL     1      -8.451  -6.368  15.776  0.00  0.00    +0.000 A 
ATOM      5  C   UNL     1      -9.746  -6.353  15.410  0.00  0.00    +0.000 A 
ATOM      6  C   UNL     1     -10.815  -6.595  16.368  0.00  0.00    +0.000 A 
ATOM      7  C   UNL     1     -10.516  -6.883  17.654  0.00  0.00    +0.000 A 
ATOM      8  N   UNL     1      -9.154  -6.942  18.006  0.00  0.00    +0.000 N 
ATOM      9  C   UNL     1      -8.513  -7.230  19.211  0.00  0.00    +0.000 A 
ATOM     10  H   UNL     1      -7.655  -6.131  15.080  0.00  0.00    +0.000 HD
ATOM     11  H   UNL     1     -10.028  -6.109  14.391  0.00  0.00    +0.000 HD
ATOM     12  H   UNL     1     -11.839  -6.480  16.028  0.00  0.00    +0.000 HD
ENDROOT
BRANCH   1  20
ATOM     13  C   UNL     1     -10.529  -1.711  21.363  0.00  0.00    +0.000 A 
ATOM     14  C   UNL     1      -9.916  -1.839  22.617  0.00  0.00    +0.000 A 
ATOM     15  C   UNL     1      -8.759  -2.613  22.781  0.00  0.00    +0.000 A 
ATOM     16  C   UNL     1      -8.220  -3.254  21.655  0.00  0.00    +0.000 A 
ATOM     17  N   UNL     1      -6.995  -3.927  21.737  0.00  0.00    +0.000 N 
ATOM     18  C   UNL     1      -6.441  -4.610  20.687  0.00  0.00    +0.000 A 
ATOM     19  O   UNL     1      -5.262  -4.946  20.713  0.00  0.00    +0.000 OA
ATOM     20  C   UNL     1      -7.384  -4.995  19.581  0.00  0.00    +0.000 A 
ATOM     21  C   UNL     1      -8.456  -4.188  19.379  0.00  0.00    +0.000 A 
ATOM     22  C   UNL     1      -8.872  -3.220  20.413  0.00  0.00    +0.000 A 
ATOM     23  C   UNL     1     -10.016  -2.427  20.267  0.00  0.00    +0.000 A 
ATOM     24  H   UNL     1     -10.350  -1.336  23.480  0.00  0.00    +0.000 HD
ATOM     25  H   UNL     1      -6.396  -3.799  22.540  0.00  0.00    +0.000 HD
ATOM     26  H   UNL     1      -9.218  -4.469  18.655  0.00  0.00    +0.000 HD
ATOM     27  H   UNL     1     -10.534  -2.384  19.311  0.00  0.00    +0.000 HD
BRANCH  13  28
ATOM     28  C   UNL     1     -11.744  -0.842  21.203  0.00  0.00    +0.000 C 
ATOM     29  H   UNL     1     -11.469   0.200  21.004  0.00  0.00    +0.000 HD
ATOM     30  H   UNL     1     -12.350  -0.856  22.115  0.00  0.00    +0.000 HD
ATOM     31  H   UNL     1     -12.347  -1.192  20.359  0.00  0.00    +0.000 HD
ENDBRANCH  13  28
BRANCH  15  32
ATOM     32  C   UNL     1      -8.186  -2.812  24.156  0.00  0.00    +0.000 C 
ATOM     33  H   UNL     1      -8.934  -3.199  24.855  0.00  0.00    +0.000 HD
ATOM     34  H   UNL     1      -7.806  -1.870  24.560  0.00  0.00    +0.000 HD
ATOM     35  H   UNL     1      -7.371  -3.544  24.113  0.00  0.00    +0.000 HD
ENDBRANCH  15  32
ENDBRANCH   1  20
BRANCH   7  36
ATOM     36  C   UNL     1     -11.575  -6.983  18.712  0.00  0.00    +0.000 C 
ATOM     37  H   UNL     1     -11.914  -8.019  18.843  0.00  0.00    +0.000 HD
ATOM     38  H   UNL     1     -12.454  -6.393  18.425  0.00  0.00    +0.000 HD
ATOM     39  H   UNL     1     -11.228  -6.644  19.688  0.00  0.00    +0.000 HD
ENDBRANCH   7  36
BRANCH   9  40
ATOM     40  N   UNL     1      -8.919  -8.269  19.999  0.00  0.00    +0.000 N 
ATOM     41  H   UNL     1      -9.409  -8.074  20.869  0.00  0.00    +0.000 HD
BRANCH  40  42
ATOM     42  C   UNL     1      -8.239  -9.555  20.032  0.00  0.00    +0.000 C 
ATOM     43  H   UNL     1      -8.540 -10.083  20.943  0.00  0.00    +0.000 HD
ATOM     44  H   UNL     1      -7.154  -9.416  20.067  0.00  0.00    +0.000 HD
BRANCH  42  45
ATOM     45  C   UNL     1      -8.564 -10.425  18.851  0.00  0.00    +0.000 A 
ATOM     46  C   UNL     1      -9.233 -10.208  17.659  0.00  0.00    +0.000 A 
ATOM     47  C   UNL     1      -9.183 -11.426  16.937  0.00  0.00    +0.000 A 
ATOM     48  C   UNL     1      -8.509 -12.317  17.739  0.00  0.00    +0.000 A 
ATOM     49  O   UNL     1      -8.138 -11.724  18.903  0.00  0.00    +0.000 OA
ATOM     50  H   UNL     1      -9.689  -9.278  17.349  0.00  0.00    +0.000 HD
ATOM     51  H   UNL     1      -9.582 -11.631  15.953  0.00  0.00    +0.000 HD
ATOM     52  H   UNL     1      -8.222 -13.352  17.630  0.00  0.00    +0.000 HD
ENDBRANCH  42  45
ENDBRANCH  40  42
ENDBRANCH   9  40
TORSDOF 7
ENDMDL
MODEL 3
REMARK VINA RESULT:    -9.525      1.950      7.804
REMARK INTER + INTRA:         -11.996
REMARK INTER:                 -11.780
REMARK INTRA:                  -0.217
REMARK UNBOUND:                 0.591
REMARK  Name = 
REMARK  7 active torsions:
REMARK  status: ('A' for Active; 'I' for Inactive)
REMARK    1  A    between atoms: C_1  and  C_2
REMARK    2  A    between atoms: C_4  and  C_5
REMARK    3  A    between atoms: C_10  and  C_11
REMARK    4  A    between atoms: C_17  and  C_18
REMARK    5  A    between atoms: C_20  and  N_21
REMARK    6  A    between atoms: N_21  and  C_22
REMARK    7  A    between atoms: C_22  and  C_23
REMARK                            x       y       z     vdW  Elec       q    Type
REMARK                         _______ _______ _______ _____ _____    ______ ____
ROOT
ATOM      1  C   UNL     1     -11.464  -5.046  16.260  0.00  0.00    +0.000 A 
ATOM      2  N   UNL     1     -11.407  -4.558  17.571  0.00  0.00    +0.000 NA
ATOM      3  C   UNL     1     -10.255  -5.025  18.027  0.00  0.00    +0.000 A 
ATOM      4  C   UNL     1      -9.413  -4.590  19.083  0.00  0.00    +0.000 A 
ATOM      5  C   UNL     1      -8.160  -5.075  19.172  0.00  0.00    +0.000 A 
ATOM      6  C   UNL     1      -7.642  -6.038  18.212  0.00  0.00    +0.000 A 
ATOM      7  C   UNL     1      -8.438  -6.498  17.222  0.00  0.00    +0.000 A 
ATOM      8  N   UNL     1      -9.760  -6.015  17.173  0.00  0.00    +0.000 N 
ATOM      9  C   UNL     1     -10.826  -6.295  16.318  0.00  0.00    +0.000 A 
ATOM     10  H   UNL     1      -9.783  -3.830  19.760  0.00  0.00    +0.000 HD
ATOM     11  H   UNL     1      -7.485  -4.719  19.943  0.00  0.00    +0.000 HD
ATOM     12  H   UNL     1      -6.598  -6.321  18.287  0.00  0.00    +0.000 HD
ENDROOT
BRANCH   1  20
ATOM     13  C   UNL     1     -12.033  -2.806  10.659  0.00  0.00    +0.000 A 
ATOM     14  C   UNL     1     -12.841  -1.755  11.113  0.00  0.00    +0.000 A 
ATOM     15  C   UNL     1     -12.921  -1.440  12.476  0.00  0.00    +0.000 A 
ATOM     16  C   UNL     1     -12.164  -2.199  13.382  0.00  0.00    +0.000 A 
ATOM     17  N   UNL     1     -12.104  -1.841  14.734  0.00  0.00    +0.000 N 
ATOM     18  C   UNL     1     -11.420  -2.568  15.674  0.00  0.00    +0.000 A 
ATOM     19  O   UNL     1     -11.165  -2.085  16.771  0.00  0.00    +0.000 OA
ATOM     20  C   UNL     1     -11.110  -3.992  15.306  0.00  0.00    +0.000 A 
ATOM     21  C   UNL     1     -10.952  -4.265  13.987  0.00  0.00    +0.000 A 
ATOM     22  C   UNL     1     -11.426  -3.316  12.961  0.00  0.00    +0.000 A 
ATOM     23  C   UNL     1     -11.346  -3.602  11.593  0.00  0.00    +0.000 A 
ATOM     24  H   UNL     1     -13.423  -1.179  10.395  0.00  0.00    +0.000 HD
ATOM     25  H   UNL     1     -12.437  -0.938  15.038  0.00  0.00    +0.000 HD
ATOM     26  H   UNL     1     -10.817  -5.294  13.658  0.00  0.00    +0.000 HD
ATOM     27  H   UNL     1     -10.777  -4.462  11.247  0.00  0.00    +0.000 HD
BRANCH  13  28
ATOM     28  C   UNL     1     -11.930  -3.098   9.189  0.00  0.00    +0.000 C 
ATOM     29  H   UNL     1     -12.777  -3.700   8.839  0.00  0.00    +0.000 HD
ATOM     30  H   UNL     1     -11.014  -3.656   8.970  0.00  0.00    +0.000 HD
ATOM     31  H   UNL     1     -11.932  -2.163   8.620  0.00  0.00    +0.000 HD
ENDBRANCH  13  28
BRANCH  15  32
ATOM     32  C   UNL     1     -13.874  -0.374  12.939  0.00  0.00    +0.000 C 
ATOM     33  H   UNL     1     -13.375   0.594  13.054  0.00  0.00    +0.000 HD
ATOM     34  H   UNL     1     -14.316  -0.638  13.903  0.00  0.00    +0.000 HD
ATOM     35  H   UNL     1     -14.670  -0.244  12.196  0.00  0.00    +0.000 HD
ENDBRANCH  15  32
ENDBRANCH   1  20
BRANCH   7  36
ATOM     36  C   UNL     1      -7.910  -7.365  16.116  0.00  0.00    +0.000 C 
ATOM     37  H   UNL     1      -7.026  -7.929  16.437  0.00  0.00    +0.000 HD
ATOM     38  H   UNL     1      -7.602  -6.746  15.265  0.00  0.00    +0.000 HD
ATOM     39  H   UNL     1      -8.639  -8.098  15.772  0.00  0.00    +0.000 HD
ENDBRANCH   7  36
BRANCH   9  40
ATOM     40  N   UNL     1     -11.118  -7.575  15.944  0.00  0.00    +0.000 N 
ATOM     41  H   UNL     1     -11.732  -7.735  15.150  0.00  0.00    +0.000 HD
BRANCH  40  42
ATOM     42  C   UNL     1     -11.128  -8.692  16.877  0.00  0.00    +0.000 C 
ATOM     43  H   UNL     1     -12.149  -9.083  16.939  0.00  0.00    +0.000 HD
ATOM     44  H   UNL     1     -10.834  -8.361  17.878  0.00  0.00    +0.000 HD
BRANCH  42  45
ATOM     45  C   UNL     1     -10.216  -9.814  16.466  0.00  0.00    +0.000 A 
ATOM     46  C   UNL     1      -9.481 -10.753  17.166  0.00  0.00    +0.000 A 
ATOM     47  C   UNL     1      -8.840 -11.569  16.201  0.00  0.00    +0.000 A 
ATOM     48  C   UNL     1      -9.203 -11.066  14.975  0.00  0.00    +0.000 A 
ATOM     49  O   UNL     1     -10.029  -9.998  15.123  0.00  0.00    +0.000 OA
ATOM     50  H   UNL     1      -9.426 -10.841  18.242  0.00  0.00    +0.000 HD
ATOM     51  H   UNL     1      -8.197 -12.422  16.374  0.00  0.00    +0.000 HD
ATOM     52  H   UNL     1      -8.976 -11.343  13.955  0.00  0.00    +0.000 HD
ENDBRANCH  42  45
ENDBRANCH  40  42
ENDBRANCH   9  40
TORSDOF 7
ENDMDL
MODEL 4
REMARK VINA RESULT:    -9.413      2.935      5.533
REMARK INTER + INTRA:         -11.849
REMARK INTER:                 -12.466
REMARK INTRA:                   0.617
REMARK UNBOUND:                 0.591
REMARK  Name = 
REMARK  7 active torsions:
REMARK  status: ('A' for Active; 'I' for Inactive)
REMARK    1  A    between atoms: C_1  and  C_2
REMARK    2  A    between atoms: C_4  and  C_5
REMARK    3  A    between atoms: C_10  and  C_11
REMARK    4  A    between atoms: C_17  and  C_18
REMARK    5  A    between atoms: C_20  and  N_21
REMARK    6  A    between atoms: N_21  and  C_22
REMARK    7  A    between atoms: C_22  and  C_23
REMARK                            x       y       z     vdW  Elec       q    Type
REMARK                         _______ _______ _______ _____ _____    ______ ____
ROOT
ATOM      1  C   UNL     1     -11.076  -5.357  17.768  0.00  0.00    +0.000 A 
ATOM      2  N   UNL     1     -11.966  -5.184  16.702  0.00  0.00    +0.000 NA
ATOM      3  C   UNL     1     -11.658  -3.987  16.229  0.00  0.00    +0.000 A 
ATOM      4  C   UNL     1     -11.867  -3.392  14.958  0.00  0.00    +0.000 A 
ATOM      5  C   UNL     1     -11.219  -2.254  14.645  0.00  0.00    +0.000 A 
ATOM      6  C   UNL     1     -10.304  -1.614  15.578  0.00  0.00    +0.000 A 
ATOM      7  C   UNL     1     -10.118  -2.139  16.809  0.00  0.00    +0.000 A 
ATOM      8  N   UNL     1     -10.842  -3.302  17.135  0.00  0.00    +0.000 N 
ATOM      9  C   UNL     1     -10.903  -4.069  18.298  0.00  0.00    +0.000 A 
ATOM     10  H   UNL     1     -12.504  -3.903  14.246  0.00  0.00    +0.000 HD
ATOM     11  H   UNL     1     -11.328  -1.810  13.661  0.00  0.00    +0.000 HD
ATOM     12  H   UNL     1      -9.745  -0.751  15.231  0.00  0.00    +0.000 HD
ENDROOT
BRANCH   1  20
ATOM     13  C   UNL     1      -8.755 -10.952  17.670  0.00  0.00    +0.000 A 
ATOM     14  C   UNL     1      -8.991 -11.075  16.294  0.00  0.00    +0.000 A 
ATOM     15  C   UNL     1      -9.286  -9.954  15.508  0.00  0.00    +0.000 A 
ATOM     16  C   UNL     1      -9.331  -8.696  16.129  0.00  0.00    +0.000 A 
ATOM     17  N   UNL     1      -9.488  -7.532  15.368  0.00  0.00    +0.000 N 
ATOM     18  C   UNL     1      -9.586  -6.281  15.920  0.00  0.00    +0.000 A 
ATOM     19  O   UNL     1      -9.447  -5.280  15.226  0.00  0.00    +0.000 OA
ATOM     20  C   UNL     1      -9.969  -6.232  17.373  0.00  0.00    +0.000 A 
ATOM     21  C   UNL     1      -9.602  -7.288  18.141  0.00  0.00    +0.000 A 
ATOM     22  C   UNL     1      -9.195  -8.563  17.519  0.00  0.00    +0.000 A 
ATOM     23  C   UNL     1      -8.884  -9.694  18.283  0.00  0.00    +0.000 A 
ATOM     24  H   UNL     1      -8.954 -12.060  15.830  0.00  0.00    +0.000 HD
ATOM     25  H   UNL     1      -9.376  -7.559  14.365  0.00  0.00    +0.000 HD
ATOM     26  H   UNL     1      -9.932  -7.346  19.177  0.00  0.00    +0.000 HD
ATOM     27  H   UNL     1      -8.772  -9.610  19.362  0.00  0.00    +0.000 HD
BRANCH  13  28
ATOM     28  C   UNL     1      -8.399 -12.163  18.485  0.00  0.00    +0.000 C 
ATOM     29  H   UNL     1      -9.295 -12.696  18.824  0.00  0.00    +0.000 HD
ATOM     30  H   UNL     1      -7.829 -11.875  19.374  0.00  0.00    +0.000 HD
ATOM     31  H   UNL     1      -7.808 -12.860  17.883  0.00  0.00    +0.000 HD
ENDBRANCH  13  28
BRANCH  15  32
ATOM     32  C   UNL     1      -9.634 -10.133  14.057  0.00  0.00    +0.000 C 
ATOM     33  H   UNL     1     -10.654  -9.799  13.840  0.00  0.00    +0.000 HD
ATOM     34  H   UNL     1      -9.557 -11.183  13.764  0.00  0.00    +0.000 HD
ATOM     35  H   UNL     1      -8.956  -9.533  13.438  0.00  0.00    +0.000 HD
ENDBRANCH  15  32
ENDBRANCH   1  20
BRANCH   7  36
ATOM     36  C   UNL     1      -9.071  -1.613  17.747  0.00  0.00    +0.000 C 
ATOM     37  H   UNL     1      -8.112  -2.127  17.606  0.00  0.00    +0.000 HD
ATOM     38  H   UNL     1      -9.375  -1.784  18.787  0.00  0.00    +0.000 HD
ATOM     39  H   UNL     1      -8.878  -0.550  17.609  0.00  0.00    +0.000 HD
ENDBRANCH   7  36
BRANCH   9  40
ATOM     40  N   UNL     1     -10.993  -3.484  19.529  0.00  0.00    +0.000 N 
ATOM     41  H   UNL     1     -10.695  -4.003  20.351  0.00  0.00    +0.000 HD
BRANCH  40  42
ATOM     42  C   UNL     1     -11.978  -2.464  19.854  0.00  0.00    +0.000 C 
ATOM     43  H   UNL     1     -12.896  -2.961  20.187  0.00  0.00    +0.000 HD
ATOM     44  H   UNL     1     -12.222  -1.868  18.968  0.00  0.00    +0.000 HD
BRANCH  42  45
ATOM     45  C   UNL     1     -11.525  -1.529  20.941  0.00  0.00    +0.000 A 
ATOM     46  C   UNL     1     -12.190  -0.697  21.822  0.00  0.00    +0.000 A 
ATOM     47  C   UNL     1     -11.199  -0.088  22.632  0.00  0.00    +0.000 A 
ATOM     48  C   UNL     1      -9.992  -0.568  22.183  0.00  0.00    +0.000 A 
ATOM     49  O   UNL     1     -10.178  -1.434  21.152  0.00  0.00    +0.000 OA
ATOM     50  H   UNL     1     -13.261  -0.557  21.878  0.00  0.00    +0.000 HD
ATOM     51  H   UNL     1     -11.343   0.608  23.447  0.00  0.00    +0.000 HD
ATOM     52  H   UNL     1      -8.965  -0.404  22.476  0.00  0.00    +0.000 HD
ENDBRANCH  42  45
ENDBRANCH  40  42
ENDBRANCH   9  40
TORSDOF 7
ENDMDL
MODEL 5
REMARK VINA RESULT:    -9.109      5.454     10.038
REMARK INTER + INTRA:         -11.447
REMARK INTER:                 -10.795
REMARK INTRA:                  -0.652
REMARK UNBOUND:                 0.591
REMARK  Name = 
REMARK  7 active torsions:
REMARK  status: ('A' for Active; 'I' for Inactive)
REMARK    1  A    between atoms: C_1  and  C_2
REMARK    2  A    between atoms: C_4  and  C_5
REMARK    3  A    between atoms: C_10  and  C_11
REMARK    4  A    between atoms: C_17  and  C_18
REMARK    5  A    between atoms: C_20  and  N_21
REMARK    6  A    between atoms: N_21  and  C_22
REMARK    7  A    between atoms: C_22  and  C_23
REMARK                            x       y       z     vdW  Elec       q    Type
REMARK                         _______ _______ _______ _____ _____    ______ ____
ROOT
ATOM      1  C   UNL     1      -9.232  -1.827  19.405  0.00  0.00    +0.000 A 
ATOM      2  N   UNL     1      -9.576  -0.992  18.335  0.00  0.00    +0.000 NA
ATOM      3  C   UNL     1     -10.463  -1.703  17.659  0.00  0.00    +0.000 A 
ATOM      4  C   UNL     1     -11.482  -1.320  16.748  0.00  0.00    +0.000 A 
ATOM      5  C   UNL     1     -12.428  -2.212  16.400  0.00  0.00    +0.000 A 
ATOM      6  C   UNL     1     -12.437  -3.566  16.935  0.00  0.00    +0.000 A 
ATOM      7  C   UNL     1     -11.455  -3.967  17.772  0.00  0.00    +0.000 A 
ATOM      8  N   UNL     1     -10.448  -3.034  18.086  0.00  0.00    +0.000 N 
ATOM      9  C   UNL     1      -9.304  -3.126  18.879  0.00  0.00    +0.000 A 
ATOM     10  H   UNL     1     -11.504  -0.295  16.397  0.00  0.00    +0.000 HD
ATOM     11  H   UNL     1     -13.242  -1.925  15.743  0.00  0.00    +0.000 HD
ATOM     12  H   UNL     1     -13.276  -4.206  16.685  0.00  0.00    +0.000 HD
ENDROOT
BRANCH   1  20
ATOM     13  C   UNL     1      -9.124  -1.363  25.446  0.00  0.00    +0.000 A 
ATOM     14  C   UNL     1      -8.945   0.025  25.381  0.00  0.00    +0.000 A 
ATOM     15  C   UNL     1      -9.175   0.730  24.191  0.00  0.00    +0.000 A 
ATOM     16  C   UNL     1      -9.596   0.012  23.062  0.00  0.00    +0.000 A 
ATOM     17  N   UNL     1      -9.966   0.683  21.890  0.00  0.00    +0.000 N 
ATOM     18  C   UNL     1     -10.341   0.037  20.741  0.00  0.00    +0.000 A 
ATOM     19  O   UNL     1     -10.913   0.644  19.842  0.00  0.00    +0.000 OA
ATOM     20  C   UNL     1      -9.920  -1.401  20.628  0.00  0.00    +0.000 A 
ATOM     21  C   UNL     1      -9.784  -2.095  21.785  0.00  0.00    +0.000 A 
ATOM     22  C   UNL     1      -9.686  -1.388  23.077  0.00  0.00    +0.000 A 
ATOM     23  C   UNL     1      -9.469  -2.070  24.280  0.00  0.00    +0.000 A 
ATOM     24  H   UNL     1      -8.616   0.565  26.268  0.00  0.00    +0.000 HD
ATOM     25  H   UNL     1     -10.122   1.680  21.900  0.00  0.00    +0.000 HD
ATOM     26  H   UNL     1      -9.393  -3.111  21.766  0.00  0.00    +0.000 HD
ATOM     27  H   UNL     1      -9.537  -3.155  24.313  0.00  0.00    +0.000 HD
BRANCH  13  28
ATOM     28  C   UNL     1      -8.913  -2.091  26.743  0.00  0.00    +0.000 C 
ATOM     29  H   UNL     1      -8.023  -2.730  26.705  0.00  0.00    +0.000 HD
ATOM     30  H   UNL     1      -9.772  -2.731  26.969  0.00  0.00    +0.000 HD
ATOM     31  H   UNL     1      -8.770  -1.373  27.557  0.00  0.00    +0.000 HD
ENDBRANCH  13  28
BRANCH  15  32
ATOM     32  C   UNL     1      -8.877   2.202  24.129  0.00  0.00    +0.000 C 
ATOM     33  H   UNL     1      -9.749   2.779  23.806  0.00  0.00    +0.000 HD
ATOM     34  H   UNL     1      -8.063   2.405  23.429  0.00  0.00    +0.000 HD
ATOM     35  H   UNL     1      -8.598   2.564  25.126  0.00  0.00    +0.000 HD
ENDBRANCH  15  32
ENDBRANCH   1  20
BRANCH   7  36
ATOM     36  C   UNL     1     -11.503  -5.292  18.475  0.00  0.00    +0.000 C 
ATOM     37  H   UNL     1     -10.546  -5.522  18.961  0.00  0.00    +0.000 HD
ATOM     38  H   UNL     1     -11.697  -6.095  17.755  0.00  0.00    +0.000 HD
ATOM     39  H   UNL     1     -12.264  -5.327  19.254  0.00  0.00    +0.000 HD
ENDBRANCH   7  36
BRANCH   9  40
ATOM     40  N   UNL     1      -8.487  -4.219  18.822  0.00  0.00    +0.000 N 
ATOM     41  H   UNL     1      -8.479  -4.791  17.982  0.00  0.00    +0.000 HD
BRANCH  40  42
ATOM     42  C   UNL     1      -8.080  -4.970  19.999  0.00  0.00    +0.000 C 
ATOM     43  H   UNL     1      -7.942  -6.017  19.712  0.00  0.00    +0.000 HD
ATOM     44  H   UNL     1      -8.859  -4.932  20.768  0.00  0.00    +0.000 HD
BRANCH  42  45
ATOM     45  C   UNL     1      -6.797  -4.471  20.604  0.00  0.00    +0.000 A 
ATOM     46  C   UNL     1      -6.502  -3.671  21.693  0.00  0.00    +0.000 A 
ATOM     47  C   UNL     1      -5.090  -3.588  21.765  0.00  0.00    +0.000 A 
ATOM     48  C   UNL     1      -4.610  -4.321  20.706  0.00  0.00    +0.000 A 
ATOM     49  O   UNL     1      -5.636  -4.852  19.991  0.00  0.00    +0.000 OA
ATOM     50  H   UNL     1      -7.222  -3.215  22.358  0.00  0.00    +0.000 HD
ATOM     51  H   UNL     1      -4.492  -3.065  22.499  0.00  0.00    +0.000 HD
ATOM     52  H   UNL     1      -3.619  -4.554  20.344  0.00  0.00    +0.000 HD
ENDBRANCH  42  45
ENDBRANCH  40  42
ENDBRANCH   9  40
TORSDOF 7
ENDMDL
MODEL 6
REMARK VINA RESULT:    -9.081      2.595      8.218
REMARK INTER + INTRA:         -11.410
REMARK INTER:                 -11.322
REMARK INTRA:                  -0.088
REMARK UNBOUND:                 0.591
REMARK  Name = 
REMARK  7 active torsions:
REMARK  status: ('A' for Active; 'I' for Inactive)
REMARK    1  A    between atoms: C_1  and  C_2
REMARK    2  A    between atoms: C_4  and  C_5
REMARK    3  A    between atoms: C_10  and  C_11
REMARK    4  A    between atoms: C_17  and  C_18
REMARK    5  A    between atoms: C_20  and  N_21
REMARK    6  A    between atoms: N_21  and  C_22
REMARK    7  A    between atoms: C_22  and  C_23
REMARK                            x       y       z     vdW  Elec       q    Type
REMARK                         _______ _______ _______ _____ _____    ______ ____
ROOT
ATOM      1  C   UNL     1      -8.552  -5.925  17.404  0.00  0.00    +0.000 A 
ATOM      2  N   UNL     1      -8.596  -6.651  16.207  0.00  0.00    +0.000 NA
ATOM      3  C   UNL     1      -8.790  -7.898  16.606  0.00  0.00    +0.000 A 
ATOM      4  C   UNL     1      -9.324  -9.029  15.937  0.00  0.00    +0.000 A 
ATOM      5  C   UNL     1      -9.664 -10.120  16.651  0.00  0.00    +0.000 A 
ATOM      6  C   UNL     1      -9.499 -10.171  18.095  0.00  0.00    +0.000 A 
ATOM      7  C   UNL     1      -8.954  -9.122  18.750  0.00  0.00    +0.000 A 
ATOM      8  N   UNL     1      -8.561  -8.010  17.980  0.00  0.00    +0.000 N 
ATOM      9  C   UNL     1      -7.959  -6.800  18.327  0.00  0.00    +0.000 A 
ATOM     10  H   UNL     1      -9.499  -8.965  14.870  0.00  0.00    +0.000 HD
ATOM     11  H   UNL     1     -10.119 -10.976  16.164  0.00  0.00    +0.000 HD
ATOM     12  H   UNL     1      -9.875 -11.043  18.620  0.00  0.00    +0.000 HD
ENDROOT
BRANCH   1  20
ATOM     13  C   UNL     1     -11.401  -0.861  19.117  0.00  0.00    +0.000 A 
ATOM     14  C   UNL     1     -11.792  -0.582  17.801  0.00  0.00    +0.000 A 
ATOM     15  C   UNL     1     -11.718  -1.560  16.801  0.00  0.00    +0.000 A 
ATOM     16  C   UNL     1     -11.248  -2.836  17.149  0.00  0.00    +0.000 A 
ATOM     17  N   UNL     1     -11.280  -3.884  16.222  0.00  0.00    +0.000 N 
ATOM     18  C   UNL     1     -10.793  -5.137  16.487  0.00  0.00    +0.000 A 
ATOM     19  O   UNL     1     -11.083  -6.085  15.765  0.00  0.00    +0.000 OA
ATOM     20  C   UNL     1      -9.825  -5.238  17.632  0.00  0.00    +0.000 A 
ATOM     21  C   UNL     1      -9.964  -4.335  18.635  0.00  0.00    +0.000 A 
ATOM     22  C   UNL     1     -10.760  -3.108  18.436  0.00  0.00    +0.000 A 
ATOM     23  C   UNL     1     -10.859  -2.122  19.424  0.00  0.00    +0.000 A 
ATOM     24  H   UNL     1     -12.153   0.415  17.549  0.00  0.00    +0.000 HD
ATOM     25  H   UNL     1     -11.812  -3.794  15.368  0.00  0.00    +0.000 HD
ATOM     26  H   UNL     1      -9.234  -4.304  19.442  0.00  0.00    +0.000 HD
ATOM     27  H   UNL     1     -10.489  -2.314  20.429  0.00  0.00    +0.000 HD
BRANCH  13  28
ATOM     28  C   UNL     1     -11.530   0.192  20.182  0.00  0.00    +0.000 C 
ATOM     29  H   UNL     1     -10.853   1.034  19.998  0.00  0.00    +0.000 HD
ATOM     30  H   UNL     1     -11.285  -0.223  21.165  0.00  0.00    +0.000 HD
ATOM     31  H   UNL     1     -12.551   0.587  20.197  0.00  0.00    +0.000 HD
ENDBRANCH  13  28
BRANCH  15  32
ATOM     32  C   UNL     1     -12.049  -1.199  15.380  0.00  0.00    +0.000 C 
ATOM     33  H   UNL     1     -13.047  -1.548  15.095  0.00  0.00    +0.000 HD
ATOM     34  H   UNL     1     -11.329  -1.642  14.687  0.00  0.00    +0.000 HD
ATOM     35  H   UNL     1     -12.040  -0.108  15.265  0.00  0.00    +0.000 HD
ENDBRANCH  15  32
ENDBRANCH   1  20
BRANCH   7  36
ATOM     36  C   UNL     1      -8.908  -9.057  20.249  0.00  0.00    +0.000 C 
ATOM     37  H   UNL     1      -8.133  -8.363  20.596  0.00  0.00    +0.000 HD
ATOM     38  H   UNL     1      -8.663 -10.043  20.662  0.00  0.00    +0.000 HD
ATOM     39  H   UNL     1      -9.848  -8.718  20.684  0.00  0.00    +0.000 HD
ENDBRANCH   7  36
BRANCH   9  40
ATOM     40  N   UNL     1      -6.915  -6.754  19.206  0.00  0.00    +0.000 N 
ATOM     41  H   UNL     1      -7.023  -7.161  20.132  0.00  0.00    +0.000 HD
BRANCH  40  42
ATOM     42  C   UNL     1      -5.903  -5.709  19.184  0.00  0.00    +0.000 C 
ATOM     43  H   UNL     1      -6.014  -5.139  18.255  0.00  0.00    +0.000 HD
ATOM     44  H   UNL     1      -4.898  -6.145  19.193  0.00  0.00    +0.000 HD
BRANCH  42  45
ATOM     45  C   UNL     1      -6.012  -4.756  20.341  0.00  0.00    +0.000 A 
ATOM     46  C   UNL     1      -5.092  -4.012  21.056  0.00  0.00    +0.000 A 
ATOM     47  C   UNL     1      -5.824  -3.277  22.021  0.00  0.00    +0.000 A 
ATOM     48  C   UNL     1      -7.141  -3.632  21.851  0.00  0.00    +0.000 A 
ATOM     49  O   UNL     1      -7.265  -4.534  20.843  0.00  0.00    +0.000 OA
ATOM     50  H   UNL     1      -4.023  -3.997  20.891  0.00  0.00    +0.000 HD
ATOM     51  H   UNL     1      -5.444  -2.571  22.747  0.00  0.00    +0.000 HD
ATOM     52  H   UNL     1      -8.062  -3.346  22.337  0.00  0.00    +0.000 HD
ENDBRANCH  42  45
ENDBRANCH  40  42
ENDBRANCH   9  40
TORSDOF 7
ENDMDL
MODEL 7
REMARK VINA RESULT:    -9.071      2.736      5.637
REMARK INTER + INTRA:         -11.397
REMARK INTER:                 -11.314
REMARK INTRA:                  -0.083
REMARK UNBOUND:                 0.591
REMARK  Name = 
REMARK  7 active torsions:
REMARK  status: ('A' for Active; 'I' for Inactive)
REMARK    1  A    between atoms: C_1  and  C_2
REMARK    2  A    between atoms: C_4  and  C_5
REMARK    3  A    between atoms: C_10  and  C_11
REMARK    4  A    between atoms: C_17  and  C_18
REMARK    5  A    between atoms: C_20  and  N_21
REMARK    6  A    between atoms: N_21  and  C_22
REMARK    7  A    between atoms: C_22  and  C_23
REMARK                            x       y       z     vdW  Elec       q    Type
REMARK                         _______ _______ _______ _____ _____    ______ ____
ROOT
ATOM      1  C   UNL     1     -11.183  -4.627  16.379  0.00  0.00    +0.000 A 
ATOM      2  N   UNL     1     -11.490  -4.622  15.013  0.00  0.00    +0.000 NA
ATOM      3  C   UNL     1     -10.986  -3.476  14.585  0.00  0.00    +0.000 A 
ATOM      4  C   UNL     1     -10.589  -3.044  13.293  0.00  0.00    +0.000 A 
ATOM      5  C   UNL     1      -9.856  -1.922  13.167  0.00  0.00    +0.000 A 
ATOM      6  C   UNL     1      -9.457  -1.134  14.324  0.00  0.00    +0.000 A 
ATOM      7  C   UNL     1      -9.857  -1.502  15.561  0.00  0.00    +0.000 A 
ATOM      8  N   UNL     1     -10.664  -2.652  15.667  0.00  0.00    +0.000 N 
ATOM      9  C   UNL     1     -11.255  -3.279  16.764  0.00  0.00    +0.000 A 
ATOM     10  H   UNL     1     -10.839  -3.664  12.441  0.00  0.00    +0.000 HD
ATOM     11  H   UNL     1      -9.501  -1.602  12.193  0.00  0.00    +0.000 HD
ATOM     12  H   UNL     1      -8.792  -0.293  14.162  0.00  0.00    +0.000 HD
ENDROOT
BRANCH   1  20
ATOM     13  C   UNL     1      -8.811  -9.173  19.607  0.00  0.00    +0.000 A 
ATOM     14  C   UNL     1      -8.878 -10.045  18.512  0.00  0.00    +0.000 A 
ATOM     15  C   UNL     1      -9.086  -9.562  17.213  0.00  0.00    +0.000 A 
ATOM     16  C   UNL     1      -9.220  -8.177  17.030  0.00  0.00    +0.000 A 
ATOM     17  N   UNL     1      -9.295  -7.634  15.742  0.00  0.00    +0.000 N 
ATOM     18  C   UNL     1      -9.471  -6.296  15.500  0.00  0.00    +0.000 A 
ATOM     19  O   UNL     1      -9.260  -5.831  14.386  0.00  0.00    +0.000 OA
ATOM     20  C   UNL     1     -10.027  -5.490  16.640  0.00  0.00    +0.000 A 
ATOM     21  C   UNL     1      -9.746  -5.923  17.895  0.00  0.00    +0.000 A 
ATOM     22  C   UNL     1      -9.254  -7.296  18.121  0.00  0.00    +0.000 A 
ATOM     23  C   UNL     1      -9.026  -7.798  19.408  0.00  0.00    +0.000 A 
ATOM     24  H   UNL     1      -8.775 -11.118  18.675  0.00  0.00    +0.000 HD
ATOM     25  H   UNL     1      -9.062  -8.196  14.937  0.00  0.00    +0.000 HD
ATOM     26  H   UNL     1     -10.198  -5.430  18.753  0.00  0.00    +0.000 HD
ATOM     27  H   UNL     1      -9.046  -7.130  20.267  0.00  0.00    +0.000 HD
BRANCH  13  28
ATOM     28  C   UNL     1      -8.545  -9.711  20.985  0.00  0.00    +0.000 C 
ATOM     29  H   UNL     1      -8.188 -10.746  20.949  0.00  0.00    +0.000 HD
ATOM     30  H   UNL     1      -9.458  -9.695  21.587  0.00  0.00    +0.000 HD
ATOM     31  H   UNL     1      -7.772  -9.111  21.478  0.00  0.00    +0.000 HD
ENDBRANCH  13  28
BRANCH  15  32
ATOM     32  C   UNL     1      -9.254 -10.531  16.077  0.00  0.00    +0.000 C 
ATOM     33  H   UNL     1     -10.272 -10.934  16.035  0.00  0.00    +0.000 HD
ATOM     34  H   UNL     1      -8.566 -11.374  16.178  0.00  0.00    +0.000 HD
ATOM     35  H   UNL     1      -9.067 -10.020  15.125  0.00  0.00    +0.000 HD
ENDBRANCH  15  32
ENDBRANCH   1  20
BRANCH   7  36
ATOM     36  C   UNL     1      -9.344  -0.822  16.797  0.00  0.00    +0.000 C 
ATOM     37  H   UNL     1     -10.167  -0.454  17.422  0.00  0.00    +0.000 HD
ATOM     38  H   UNL     1      -8.735   0.047  16.525  0.00  0.00    +0.000 HD
ATOM     39  H   UNL     1      -8.749  -1.485  17.425  0.00  0.00    +0.000 HD
ENDBRANCH   7  36
BRANCH   9  40
ATOM     40  N   UNL     1     -11.887  -2.559  17.737  0.00  0.00    +0.000 N 
ATOM     41  H   UNL     1     -12.044  -1.564  17.599  0.00  0.00    +0.000 HD
BRANCH  40  42
ATOM     42  C   UNL     1     -11.836  -2.913  19.148  0.00  0.00    +0.000 C 
ATOM     43  H   UNL     1     -11.683  -3.995  19.228  0.00  0.00    +0.000 HD
ATOM     44  H   UNL     1     -12.783  -2.670  19.640  0.00  0.00    +0.000 HD
BRANCH  42  45
ATOM     45  C   UNL     1     -10.727  -2.222  19.891  0.00  0.00    +0.000 A 
ATOM     46  C   UNL     1      -9.392  -2.514  20.102  0.00  0.00    +0.000 A 
ATOM     47  C   UNL     1      -8.859  -1.448  20.869  0.00  0.00    +0.000 A 
ATOM     48  C   UNL     1      -9.904  -0.584  21.097  0.00  0.00    +0.000 A 
ATOM     49  O   UNL     1     -11.041  -1.048  20.517  0.00  0.00    +0.000 OA
ATOM     50  H   UNL     1      -8.868  -3.386  19.736  0.00  0.00    +0.000 HD
ATOM     51  H   UNL     1      -7.841  -1.319  21.209  0.00  0.00    +0.000 HD
ATOM     52  H   UNL     1      -9.996   0.356  21.621  0.00  0.00    +0.000 HD
ENDBRANCH  42  45
ENDBRANCH  40  42
ENDBRANCH   9  40
TORSDOF 7
ENDMDL
MODEL 8
REMARK VINA RESULT:    -9.027      1.930      7.949
REMARK INTER + INTRA:         -11.339
REMARK INTER:                 -10.717
REMARK INTRA:                  -0.622
REMARK UNBOUND:                 0.591
REMARK  Name = 
REMARK  7 active torsions:
REMARK  status: ('A' for Active; 'I' for Inactive)
REMARK    1  A    between atoms: C_1  and  C_2
REMARK    2  A    between atoms: C_4  and  C_5
REMARK    3  A    between atoms: C_10  and  C_11
REMARK    4  A    between atoms: C_17  and  C_18
REMARK    5  A    between atoms: C_20  and  N_21
REMARK    6  A    between atoms: N_21  and  C_22
REMARK    7  A    between atoms: C_22  and  C_23
REMARK                            x       y       z     vdW  Elec       q    Type
REMARK                         _______ _______ _______ _____ _____    ______ ____
ROOT
ATOM      1  C   UNL     1     -11.713  -5.494  16.157  0.00  0.00    +0.000 A 
ATOM      2  N   UNL     1     -12.233  -4.498  16.992  0.00  0.00    +0.000 NA
ATOM      3  C   UNL     1     -11.266  -4.293  17.872  0.00  0.00    +0.000 A 
ATOM      4  C   UNL     1     -10.967  -3.183  18.703  0.00  0.00    +0.000 A 
ATOM      5  C   UNL     1      -9.770  -3.118  19.315  0.00  0.00    +0.000 A 
ATOM      6  C   UNL     1      -8.768  -4.160  19.148  0.00  0.00    +0.000 A 
ATOM      7  C   UNL     1      -9.044  -5.247  18.394  0.00  0.00    +0.000 A 
ATOM      8  N   UNL     1     -10.319  -5.319  17.801  0.00  0.00    +0.000 N 
ATOM      9  C   UNL     1     -10.924  -6.289  17.002  0.00  0.00    +0.000 A 
ATOM     10  H   UNL     1     -11.694  -2.383  18.778  0.00  0.00    +0.000 HD
ATOM     11  H   UNL     1      -9.504  -2.255  19.916  0.00  0.00    +0.000 HD
ATOM     12  H   UNL     1      -7.792  -4.004  19.595  0.00  0.00    +0.000 HD
ENDROOT
BRANCH   1  20
ATOM     13  C   UNL     1     -11.631  -0.716  12.432  0.00  0.00    +0.000 A 
ATOM     14  C   UNL     1     -10.304  -0.419  12.770  0.00  0.00    +0.000 A 
ATOM     15  C   UNL     1      -9.500  -1.352  13.437  0.00  0.00    +0.000 A 
ATOM     16  C   UNL     1     -10.054  -2.602  13.756  0.00  0.00    +0.000 A 
ATOM     17  N   UNL     1      -9.256  -3.615  14.301  0.00  0.00    +0.000 N 
ATOM     18  C   UNL     1      -9.747  -4.839  14.675  0.00  0.00    +0.000 A 
ATOM     19  O   UNL     1      -8.989  -5.778  14.886  0.00  0.00    +0.000 OA
ATOM     20  C   UNL     1     -11.232  -4.910  14.902  0.00  0.00    +0.000 A 
ATOM     21  C   UNL     1     -12.005  -4.056  14.185  0.00  0.00    +0.000 A 
ATOM     22  C   UNL     1     -11.407  -2.884  13.516  0.00  0.00    +0.000 A 
ATOM     23  C   UNL     1     -12.186  -1.944  12.832  0.00  0.00    +0.000 A 
ATOM     24  H   UNL     1      -9.892   0.558  12.516  0.00  0.00    +0.000 HD
ATOM     25  H   UNL     1      -8.250  -3.533  14.292  0.00  0.00    +0.000 HD
ATOM     26  H   UNL     1     -13.075  -4.002  14.376  0.00  0.00    +0.000 HD
ATOM     27  H   UNL     1     -13.237  -2.145  12.634  0.00  0.00    +0.000 HD
BRANCH  13  28
ATOM     28  C   UNL     1     -12.460   0.285  11.678  0.00  0.00    +0.000 C 
ATOM     29  H   UNL     1     -12.238   0.264  10.605  0.00  0.00    +0.000 HD
ATOM     30  H   UNL     1     -12.259   1.300  12.038  0.00  0.00    +0.000 HD
ATOM     31  H   UNL     1     -13.524   0.059  11.801  0.00  0.00    +0.000 HD
ENDBRANCH  13  28
BRANCH  15  32
ATOM     32  C   UNL     1      -8.115  -0.965  13.874  0.00  0.00    +0.000 C 
ATOM     33  H   UNL     1      -8.099  -0.624  14.915  0.00  0.00    +0.000 HD
ATOM     34  H   UNL     1      -7.722  -0.157  13.252  0.00  0.00    +0.000 HD
ATOM     35  H   UNL     1      -7.450  -1.834  13.806  0.00  0.00    +0.000 HD
ENDBRANCH  15  32
ENDBRANCH   1  20
BRANCH   7  36
ATOM     36  C   UNL     1      -7.996  -6.268  18.058  0.00  0.00    +0.000 C 
ATOM     37  H   UNL     1      -7.047  -6.048  18.562  0.00  0.00    +0.000 HD
ATOM     38  H   UNL     1      -7.795  -6.263  16.980  0.00  0.00    +0.000 HD
ATOM     39  H   UNL     1      -8.281  -7.276  18.358  0.00  0.00    +0.000 HD
ENDBRANCH   7  36
BRANCH   9  40
ATOM     40  N   UNL     1     -10.818  -7.618  17.298  0.00  0.00    +0.000 N 
ATOM     41  H   UNL     1     -10.601  -7.901  18.251  0.00  0.00    +0.000 HD
BRANCH  40  42
ATOM     42  C   UNL     1     -10.411  -8.620  16.324  0.00  0.00    +0.000 C 
ATOM     43  H   UNL     1      -9.721  -8.152  15.614  0.00  0.00    +0.000 HD
ATOM     44  H   UNL     1     -11.277  -8.984  15.761  0.00  0.00    +0.000 HD
BRANCH  42  45
ATOM     45  C   UNL     1      -9.722  -9.802  16.945  0.00  0.00    +0.000 A 
ATOM     46  C   UNL     1      -9.572 -11.125  16.571  0.00  0.00    +0.000 A 
ATOM     47  C   UNL     1      -8.782 -11.744  17.572  0.00  0.00    +0.000 A 
ATOM     48  C   UNL     1      -8.518 -10.769  18.505  0.00  0.00    +0.000 A 
ATOM     49  O   UNL     1      -9.090  -9.593  18.140  0.00  0.00    +0.000 OA
ATOM     50  H   UNL     1      -9.976 -11.581  15.678  0.00  0.00    +0.000 HD
ATOM     51  H   UNL     1      -8.441 -12.770  17.609  0.00  0.00    +0.000 HD
ATOM     52  H   UNL     1      -7.964 -10.752  19.432  0.00  0.00    +0.000 HD
ENDBRANCH  42  45
ENDBRANCH  40  42
ENDBRANCH   9  40
TORSDOF 7
ENDMDL
MODEL 9
REMARK VINA RESULT:    -8.878      6.717     11.652
REMARK INTER + INTRA:         -11.142
REMARK INTER:                 -10.131
REMARK INTRA:                  -1.011
REMARK UNBOUND:                 0.591
REMARK  Name = 
REMARK  7 active torsions:
REMARK  status: ('A' for Active; 'I' for Inactive)
REMARK    1  A    between atoms: C_1  and  C_2
REMARK    2  A    between atoms: C_4  and  C_5
REMARK    3  A    between atoms: C_10  and  C_11
REMARK    4  A    between atoms: C_17  and  C_18
REMARK    5  A    between atoms: C_20  and  N_21
REMARK    6  A    between atoms: N_21  and  C_22
REMARK    7  A    between atoms: C_22  and  C_23
REMARK                            x       y       z     vdW  Elec       q    Type
REMARK                         _______ _______ _______ _____ _____    ______ ____
ROOT
ATOM      1  C   UNL     1     -10.949  -1.493  20.928  0.00  0.00    +0.000 A 
ATOM      2  N   UNL     1     -11.754  -2.145  21.870  0.00  0.00    +0.000 NA
ATOM      3  C   UNL     1     -10.952  -2.296  22.913  0.00  0.00    +0.000 A 
ATOM      4  C   UNL     1     -11.225  -2.490  24.292  0.00  0.00    +0.000 A 
ATOM      5  C   UNL     1     -10.231  -2.347  25.189  0.00  0.00    +0.000 A 
ATOM      6  C   UNL     1      -8.878  -1.998  24.782  0.00  0.00    +0.000 A 
ATOM      7  C   UNL     1      -8.584  -1.848  23.472  0.00  0.00    +0.000 A 
ATOM      8  N   UNL     1      -9.626  -2.049  22.546  0.00  0.00    +0.000 N 
ATOM      9  C   UNL     1      -9.659  -1.998  21.152  0.00  0.00    +0.000 A 
ATOM     10  H   UNL     1     -12.245  -2.693  24.594  0.00  0.00    +0.000 HD
ATOM     11  H   UNL     1     -10.429  -2.443  26.251  0.00  0.00    +0.000 HD
ATOM     12  H   UNL     1      -8.145  -1.810  25.560  0.00  0.00    +0.000 HD
ENDROOT
BRANCH   1  20
ATOM     13  C   UNL     1     -12.370   3.535  23.997  0.00  0.00    +0.000 A 
ATOM     14  C   UNL     1     -11.100   4.084  23.773  0.00  0.00    +0.000 A 
ATOM     15  C   UNL     1     -10.241   3.549  22.804  0.00  0.00    +0.000 A 
ATOM     16  C   UNL     1     -10.684   2.450  22.053  0.00  0.00    +0.000 A 
ATOM     17  N   UNL     1      -9.921   1.964  20.985  0.00  0.00    +0.000 N 
ATOM     18  C   UNL     1     -10.277   0.867  20.245  0.00  0.00    +0.000 A 
ATOM     19  O   UNL     1      -9.740   0.640  19.167  0.00  0.00    +0.000 OA
ATOM     20  C   UNL     1     -11.270  -0.063  20.884  0.00  0.00    +0.000 A 
ATOM     21  C   UNL     1     -12.152   0.484  21.757  0.00  0.00    +0.000 A 
ATOM     22  C   UNL     1     -11.909   1.824  22.328  0.00  0.00    +0.000 A 
ATOM     23  C   UNL     1     -12.760   2.385  23.287  0.00  0.00    +0.000 A 
ATOM     24  H   UNL     1     -10.773   4.936  24.368  0.00  0.00    +0.000 HD
ATOM     25  H   UNL     1      -9.151   2.505  20.620  0.00  0.00    +0.000 HD
ATOM     26  H   UNL     1     -12.830  -0.157  22.317  0.00  0.00    +0.000 HD
ATOM     27  H   UNL     1     -13.715   1.916  23.512  0.00  0.00    +0.000 HD
BRANCH  13  28
ATOM     28  C   UNL     1     -13.290   4.151  25.012  0.00  0.00    +0.000 C 
ATOM     29  H   UNL     1     -12.731   4.684  25.790  0.00  0.00    +0.000 HD
ATOM     30  H   UNL     1     -13.892   3.381  25.504  0.00  0.00    +0.000 HD
ATOM     31  H   UNL     1     -13.953   4.876  24.526  0.00  0.00    +0.000 HD
ENDBRANCH  13  28
BRANCH  15  32
ATOM     32  C   UNL     1      -8.849   4.098  22.660  0.00  0.00    +0.000 C 
ATOM     33  H   UNL     1      -8.822   4.967  21.995  0.00  0.00    +0.000 HD
ATOM     34  H   UNL     1      -8.173   3.343  22.251  0.00  0.00    +0.000 HD
ATOM     35  H   UNL     1      -8.479   4.426  23.639  0.00  0.00    +0.000 HD
ENDBRANCH  15  32
ENDBRANCH   1  20
BRANCH   7  36
ATOM     36  C   UNL     1      -7.252  -1.334  23.010  0.00  0.00    +0.000 C 
ATOM     37  H   UNL     1      -6.600  -2.152  22.680  0.00  0.00    +0.000 HD
ATOM     38  H   UNL     1      -6.736  -0.826  23.834  0.00  0.00    +0.000 HD
ATOM     39  H   UNL     1      -7.336  -0.645  22.170  0.00  0.00    +0.000 HD
ENDBRANCH   7  36
BRANCH   9  40
ATOM     40  N   UNL     1      -8.674  -2.569  20.399  0.00  0.00    +0.000 N 
ATOM     41  H   UNL     1      -8.334  -2.084  19.572  0.00  0.00    +0.000 HD
BRANCH  40  42
ATOM     42  C   UNL     1      -8.474  -4.007  20.310  0.00  0.00    +0.000 C 
ATOM     43  H   UNL     1      -8.950  -4.368  19.392  0.00  0.00    +0.000 HD
ATOM     44  H   UNL     1      -8.947  -4.515  21.156  0.00  0.00    +0.000 HD
BRANCH  42  45
ATOM     45  C   UNL     1      -7.023  -4.401  20.276  0.00  0.00    +0.000 A 
ATOM     46  C   UNL     1      -5.929  -4.083  21.059  0.00  0.00    +0.000 A 
ATOM     47  C   UNL     1      -4.828  -4.803  20.531  0.00  0.00    +0.000 A 
ATOM     48  C   UNL     1      -5.312  -5.496  19.447  0.00  0.00    +0.000 A 
ATOM     49  O   UNL     1      -6.637  -5.253  19.278  0.00  0.00    +0.000 OA
ATOM     50  H   UNL     1      -5.932  -3.421  21.914  0.00  0.00    +0.000 HD
ATOM     51  H   UNL     1      -3.810  -4.821  20.896  0.00  0.00    +0.000 HD
ATOM     52  H   UNL     1      -4.866  -6.174  18.733  0.00  0.00    +0.000 HD
ENDBRANCH  42  45
ENDBRANCH  40  42
ENDBRANCH   9  40
TORSDOF 7
ENDMDL
