REMARK  Name = 
REMARK  7 active torsions:
REMARK  status: ('A' for Active; 'I' for Inactive)
REMARK    1  A    between atoms: C_1  and  C_2
REMARK    2  A    between atoms: C_4  and  C_5
REMARK    3  A    between atoms: C_10  and  C_11
REMARK    4  A    between atoms: C_17  and  C_18
REMARK    5  A    between atoms: C_20  and  N_21
REMARK    6  A    between atoms: N_21  and  C_22
REMARK    7  A    between atoms: C_22  and  C_23
REMARK                            x       y       z     vdW  Elec       q    Type
REMARK                         _______ _______ _______ _____ _____    ______ ____
ROOT
ATOM      1  C   UNL     1      -0.557  -0.768   1.391  0.00  0.00    +0.000 A 
ATOM      2  N   UNL     1      -0.207   0.167   2.372  0.00  0.00    +0.000 NA
ATOM      3  C   UNL     1       1.037   0.494   2.061  0.00  0.00    +0.000 A 
ATOM      4  C   UNL     1       1.816   1.640   2.367  0.00  0.00    +0.000 A 
ATOM      5  C   UNL     1       2.969   1.852   1.705  0.00  0.00    +0.000 A 
ATOM      6  C   UNL     1       3.442   0.935   0.679  0.00  0.00    +0.000 A 
ATOM      7  C   UNL     1       2.739  -0.184   0.398  0.00  0.00    +0.000 A 
ATOM      8  N   UNL     1       1.561  -0.413   1.135  0.00  0.00    +0.000 N 
ATOM      9  C   UNL     1       0.635  -1.456   1.115  0.00  0.00    +0.000 A 
ATOM     10  H   UNL     1       1.431   2.349   3.090  0.00  0.00    +0.000 HD
ATOM     11  H   UNL     1       3.554   2.747   1.890  0.00  0.00    +0.000 HD
ATOM     12  H   UNL     1       4.331   1.210   0.121  0.00  0.00    +0.000 HD
ENDROOT
BRANCH   1  20
ATOM     13  C   UNL     1      -3.291   4.245  -0.635  0.00  0.00    +0.000 A 
ATOM     14  C   UNL     1      -2.371   4.377  -1.684  0.00  0.00    +0.000 A 
ATOM     15  C   UNL     1      -1.529   3.317  -2.046  0.00  0.00    +0.000 A 
ATOM     16  C   UNL     1      -1.632   2.111  -1.336  0.00  0.00    +0.000 A 
ATOM     17  N   UNL     1      -0.911   0.982  -1.743  0.00  0.00    +0.000 N 
ATOM     18  C   UNL     1      -0.934  -0.209  -1.065  0.00  0.00    +0.000 A 
ATOM     19  O   UNL     1      -0.519  -1.235  -1.592  0.00  0.00    +0.000 OA
ATOM     20  C   UNL     1      -1.395  -0.143   0.364  0.00  0.00    +0.000 A 
ATOM     21  C   UNL     1      -2.277   0.838   0.681  0.00  0.00    +0.000 A 
ATOM     22  C   UNL     1      -2.475   1.989  -0.221  0.00  0.00    +0.000 A 
ATOM     23  C   UNL     1      -3.320   3.054   0.112  0.00  0.00    +0.000 A 
ATOM     24  H   UNL     1      -2.304   5.322  -2.222  0.00  0.00    +0.000 HD
ATOM     25  H   UNL     1      -0.466   0.960  -2.649  0.00  0.00    +0.000 HD
ATOM     26  H   UNL     1      -2.572   0.988   1.718  0.00  0.00    +0.000 HD
ATOM     27  H   UNL     1      -3.983   2.978   0.971  0.00  0.00    +0.000 HD
BRANCH  13  28
ATOM     28  C   UNL     1      -4.213   5.381  -0.293  0.00  0.00    +0.000 C 
ATOM     29  H   UNL     1      -4.047   6.244  -0.948  0.00  0.00    +0.000 HD
ATOM     30  H   UNL     1      -4.051   5.711   0.738  0.00  0.00    +0.000 HD
ATOM     31  H   UNL     1      -5.255   5.068  -0.416  0.00  0.00    +0.000 HD
ENDBRANCH  13  28
BRANCH  15  32
ATOM     32  C   UNL     1      -0.485   3.525  -3.107  0.00  0.00    +0.000 C 
ATOM     33  H   UNL     1      -0.547   4.526  -3.546  0.00  0.00    +0.000 HD
ATOM     34  H   UNL     1      -0.600   2.798  -3.915  0.00  0.00    +0.000 HD
ATOM     35  H   UNL     1       0.514   3.424  -2.666  0.00  0.00    +0.000 HD
ENDBRANCH  15  32
ENDBRANCH   1  20
BRANCH   7  36
ATOM     36  C   UNL     1       3.094  -1.077  -0.755  0.00  0.00    +0.000 C 
ATOM     37  H   UNL     1       4.058  -0.796  -1.197  0.00  0.00    +0.000 HD
ATOM     38  H   UNL     1       2.341  -0.989  -1.547  0.00  0.00    +0.000 HD
ATOM     39  H   UNL     1       3.178  -2.124  -0.465  0.00  0.00    +0.000 HD
ENDBRANCH   7  36
BRANCH   9  40
ATOM     40  N   UNL     1       1.037  -2.760   1.062  0.00  0.00    +0.000 N 
ATOM     41  H   UNL     1       2.029  -2.974   0.999  0.00  0.00    +0.000 HD
BRANCH  40  42
ATOM     42  C   UNL     1       0.212  -3.824   0.510  0.00  0.00    +0.000 C 
ATOM     43  H   UNL     1       0.131  -3.674  -0.572  0.00  0.00    +0.000 HD
ATOM     44  H   UNL     1      -0.798  -3.786   0.931  0.00  0.00    +0.000 HD
BRANCH  42  45
ATOM     45  C   UNL     1       0.774  -5.196   0.757  0.00  0.00    +0.000 A 
ATOM     46  C   UNL     1       0.991  -5.948   1.897  0.00  0.00    +0.000 A 
ATOM     47  C   UNL     1       1.525  -7.189   1.470  0.00  0.00    +0.000 A 
ATOM     48  C   UNL     1       1.622  -7.111   0.101  0.00  0.00    +0.000 A 
ATOM     49  O   UNL     1       1.179  -5.905  -0.340  0.00  0.00    +0.000 OA
ATOM     50  H   UNL     1       0.778  -5.638   2.911  0.00  0.00    +0.000 HD
ATOM     51  H   UNL     1       1.800  -8.039   2.080  0.00  0.00    +0.000 HD
ATOM     52  H   UNL     1       1.963  -7.792  -0.665  0.00  0.00    +0.000 HD
ENDBRANCH  42  45
ENDBRANCH  40  42
ENDBRANCH   9  40
TORSDOF 7
