REMARK  Name = 
REMARK  6 active torsions:
REMARK  status: ('A' for Active; 'I' for Inactive)
REMARK    1  A    between atoms: C_1  and  C_2
REMARK    2  A    between atoms: C_2  and  C_3
REMARK    3  A    between atoms: C_2  and  C_4
REMARK    4  A    between atoms: N_8  and  S_9
REMARK    5  A    between atoms: S_9  and  C_12
REMARK    6  A    between atoms: N_16  and  N_17
REMARK                            x       y       z     vdW  Elec       q    Type
REMARK                         _______ _______ _______ _____ _____    ______ ____
ROOT
ATOM      1  C   UNL     1       1.297  -3.586   0.176  0.00  0.00    +0.000 A 
ATOM      2  C   UNL     1       2.494  -3.332   0.733  0.00  0.00    +0.000 A 
ATOM      3  S   UNL     1       2.770  -1.617   0.914  0.00  0.00    +0.000 S 
ATOM      4  C   UNL     1       1.171  -1.232   0.211  0.00  0.00    +0.000 A 
ATOM      5  N   UNL     1       0.649  -0.065   0.029  0.00  0.00    +0.000 NA
ATOM      6  N   UNL     1       0.577  -2.434  -0.103  0.00  0.00    +0.000 N 
ATOM      7  H   UNL     1       3.227  -4.071   1.032  0.00  0.00    +0.000 HD
ATOM      8  H   UNL     1      -0.333  -2.489  -0.537  0.00  0.00    +0.000 HD
ENDROOT
BRANCH   5   9
ATOM      9  S   UNL     1       1.484   1.255   0.432  0.00  0.00    +0.000 S 
ATOM     10  O   UNL     1       1.694   1.300   1.865  0.00  0.00    +0.000 OA
ATOM     11  O   UNL     1       2.557   1.490  -0.507  0.00  0.00    +0.000 OA
BRANCH   9  12
ATOM     12  C   UNL     1       0.348   2.588   0.133  0.00  0.00    +0.000 A 
ATOM     13  C   UNL     1      -0.154   2.830  -1.143  0.00  0.00    +0.000 A 
ATOM     14  C   UNL     1      -1.018   3.911  -1.332  0.00  0.00    +0.000 A 
ATOM     15  C   UNL     1      -1.363   4.713  -0.243  0.00  0.00    +0.000 A 
ATOM     16  N   UNL     1      -2.326   5.727  -0.353  0.00  0.00    +0.000 N 
ATOM     17  N   UNL     1      -0.830   4.450   0.957  0.00  0.00    +0.000 N 
ATOM     18  C   UNL     1       0.012   3.431   1.185  0.00  0.00    +0.000 A 
ATOM     19  H   UNL     1       0.121   2.192  -1.983  0.00  0.00    +0.000 HD
ATOM     20  H   UNL     1      -1.438   4.105  -2.314  0.00  0.00    +0.000 HD
ATOM     21  H   UNL     1      -2.085   6.381  -1.111  0.00  0.00    +0.000 HD
ATOM     22  H   UNL     1      -1.106   5.100   1.695  0.00  0.00    +0.000 HD
ATOM     23  H   UNL     1       0.380   3.325   2.199  0.00  0.00    +0.000 HD
BRANCH  16  24
ATOM     24  N   UNL     1      -2.809   6.312   0.843  0.00  0.00    +0.000 NA
ATOM     25  H   UNL     1      -3.369   5.632   1.380  0.00  0.00    +0.000 HD
ATOM     26  H   UNL     1      -3.543   6.999   0.593  0.00  0.00    +0.000 HD
ENDBRANCH  16  24
ENDBRANCH   9  12
ENDBRANCH   5   9
BRANCH   1  27
ATOM     27  C   UNL     1       0.780  -4.969  -0.135  0.00  0.00    +0.000 C 
ATOM     28  H   UNL     1       1.516  -5.703   0.223  0.00  0.00    +0.000 HD
BRANCH  27  29
ATOM     29  C   UNL     1      -0.535  -5.273   0.584  0.00  0.00    +0.000 C 
ATOM     30  H   UNL     1      -0.836  -6.311   0.405  0.00  0.00    +0.000 HD
ATOM     31  H   UNL     1      -1.348  -4.626   0.238  0.00  0.00    +0.000 HD
ATOM     32  H   UNL     1      -0.431  -5.141   1.667  0.00  0.00    +0.000 HD
ENDBRANCH  27  29
BRANCH  27  33
ATOM     33  C   UNL     1       0.637  -5.179  -1.643  0.00  0.00    +0.000 C 
ATOM     34  H   UNL     1      -0.098  -4.494  -2.080  0.00  0.00    +0.000 HD
ATOM     35  H   UNL     1       0.313  -6.202  -1.860  0.00  0.00    +0.000 HD
ATOM     36  H   UNL     1       1.594  -5.019  -2.152  0.00  0.00    +0.000 HD
ENDBRANCH  27  33
ENDBRANCH   1  27
TORSDOF 6
