REMARK  Name = 
REMARK  7 active torsions:
REMARK  status: ('A' for Active; 'I' for Inactive)
REMARK    1  A    between atoms: C_1  and  O_2
REMARK    2  A    between atoms: O_2  and  C_3
REMARK    3  A    between atoms: C_3  and  C_5
REMARK    4  A    between atoms: C_6  and  N_7
REMARK    5  A    between atoms: C_11  and  C_12
REMARK    6  A    between atoms: N_14  and  C_15
REMARK    7  A    between atoms: C_21  and  C_22
REMARK                            x       y       z     vdW  Elec       q    Type
REMARK                         _______ _______ _______ _____ _____    ______ ____
ROOT
ATOM      1  C   UNL     1      -1.987   1.085   0.455  0.00  0.00    +0.000 C 
ATOM      2  C   UNL     1      -1.255   1.410   1.548  0.00  0.00    +0.000 C 
ATOM      3  O   UNL     1       0.153   1.549   1.483  0.00  0.00    +0.000 OA
ATOM      4  C   UNL     1       0.692   1.535   0.280  0.00  0.00    +0.000 A 
ATOM      5  C   UNL     1       0.089   1.191  -0.887  0.00  0.00    +0.000 A 
ATOM      6  C   UNL     1       1.049   1.389  -1.889  0.00  0.00    +0.000 A 
ATOM      7  N   UNL     1       2.218   1.781  -1.368  0.00  0.00    +0.000 NA
ATOM      8  N   UNL     1       2.037   1.789  -0.010  0.00  0.00    +0.000 N 
ATOM      9  C   UNL     1      -1.322   0.724  -0.868  0.00  0.00    +0.000 C 
ATOM     10  H   UNL     1      -1.842   1.203  -1.709  0.00  0.00    +0.000 HD
ENDROOT
BRANCH   9  11
ATOM     11  C   UNL     1      -1.247  -0.791  -1.048  0.00  0.00    +0.000 A 
ATOM     12  C   UNL     1      -2.109  -1.390  -1.976  0.00  0.00    +0.000 A 
ATOM     13  C   UNL     1      -2.191  -2.777  -2.061  0.00  0.00    +0.000 A 
ATOM     14  C   UNL     1      -1.304  -3.580  -1.337  0.00  0.00    +0.000 A 
ATOM     15  C   UNL     1      -1.338  -4.969  -1.431  0.00  0.00    +0.000 A 
ATOM     16  C   UNL     1      -0.165  -5.691  -1.294  0.00  0.00    +0.000 A 
ATOM     17  C   UNL     1       0.893  -5.106  -0.612  0.00  0.00    +0.000 A 
ATOM     18  C   UNL     1       0.758  -3.808  -0.111  0.00  0.00    +0.000 A 
ATOM     19  C   UNL     1      -0.301  -2.998  -0.555  0.00  0.00    +0.000 A 
ATOM     20  C   UNL     1      -0.376  -1.621  -0.305  0.00  0.00    +0.000 A 
ATOM     21  H   UNL     1      -2.738  -0.779  -2.620  0.00  0.00    +0.000 HD
ATOM     22  H   UNL     1      -2.872  -3.221  -2.784  0.00  0.00    +0.000 HD
ATOM     23  H   UNL     1      -2.290  -5.487  -1.498  0.00  0.00    +0.000 HD
ATOM     24  H   UNL     1      -0.103  -6.706  -1.674  0.00  0.00    +0.000 HD
ATOM     25  H   UNL     1       1.798  -5.676  -0.434  0.00  0.00    +0.000 HD
ATOM     26  H   UNL     1       1.540  -3.402   0.524  0.00  0.00    +0.000 HD
ATOM     27  H   UNL     1       0.303  -1.194   0.432  0.00  0.00    +0.000 HD
ENDBRANCH   9  11
BRANCH   8  28
ATOM     28  C   UNL     1       3.123   2.034   0.867  0.00  0.00    +0.000 A 
ATOM     29  C   UNL     1       4.402   2.264   0.332  0.00  0.00    +0.000 A 
ATOM     30  C   UNL     1       5.502   2.458   1.163  0.00  0.00    +0.000 A 
ATOM     31  C   UNL     1       5.344   2.432   2.548  0.00  0.00    +0.000 A 
ATOM     32  C   UNL     1       4.081   2.210   3.096  0.00  0.00    +0.000 A 
ATOM     33  C   UNL     1       2.975   2.013   2.265  0.00  0.00    +0.000 A 
ATOM     34  H   UNL     1       4.558   2.271  -0.751  0.00  0.00    +0.000 HD
ATOM     35  H   UNL     1       6.486   2.623   0.734  0.00  0.00    +0.000 HD
ATOM     36  H   UNL     1       6.198   2.584   3.199  0.00  0.00    +0.000 HD
ATOM     37  H   UNL     1       3.955   2.184   4.176  0.00  0.00    +0.000 HD
ATOM     38  H   UNL     1       2.023   1.833   2.747  0.00  0.00    +0.000 HD
ENDBRANCH   8  28
BRANCH   6  39
ATOM     39  C   UNL     1       0.895   1.195  -3.370  0.00  0.00    +0.000 C 
ATOM     40  H   UNL     1      -0.124   0.955  -3.629  0.00  0.00    +0.000 HD
ATOM     41  H   UNL     1       1.538   0.372  -3.704  0.00  0.00    +0.000 HD
ATOM     42  H   UNL     1       1.194   2.092  -3.890  0.00  0.00    +0.000 HD
ENDBRANCH   6  39
BRANCH   2  43
ATOM     43  N   UNL     1      -1.743   1.630   2.820  0.00  0.00    +0.000 N 
ATOM     44  H   UNL     1      -2.733   1.877   2.835  0.00  0.00    +0.000 HD
ATOM     45  H   UNL     1      -1.156   2.253   3.363  0.00  0.00    +0.000 HD
ENDBRANCH   2  43
BRANCH   1  46
ATOM     46  C   UNL     1      -3.470   1.078   0.377  0.00  0.00    +0.000 C 
ATOM     47  O   UNL     1      -4.090   0.746  -0.627  0.00  0.00    +0.000 OA
BRANCH  46  48
ATOM     48  O   UNL     1      -4.051   1.580   1.500  0.00  0.00    +0.000 OA
BRANCH  48  49
ATOM     49  C   UNL     1      -5.474   1.687   1.426  0.00  0.00    +0.000 C 
ATOM     50  H   UNL     1      -5.824   2.158   2.347  0.00  0.00    +0.000 HD
ATOM     51  H   UNL     1      -5.927   0.693   1.346  0.00  0.00    +0.000 HD
ATOM     52  H   UNL     1      -5.769   2.319   0.582  0.00  0.00    +0.000 HD
ENDBRANCH  48  49
ENDBRANCH  46  48
ENDBRANCH   1  46
TORSDOF 7
