
 OpenBabel01112423033D

 42 44  0  0  0  0  0  0  0  0999 V2000
    1.1426    0.4552   -0.2897 C   0  0  0  0  0  0  0  0  0  0  0  0
    2.5618   -0.0293   -0.0544 C   0  0  0  0  0  0  0  0  0  0  0  0
    2.9752   -0.9762   -1.0660 N   0  0  0  0  0  0  0  0  0  0  0  0
    2.7657   -2.3270   -1.0124 C   0  0  0  0  0  0  0  0  0  0  0  0
    3.1856   -2.9253   -2.1029 N   0  0  0  0  0  0  0  0  0  0  0  0
    3.7178   -1.9225   -2.8818 C   0  0  0  0  0  0  0  0  0  0  0  0
    4.3403   -1.9299   -4.1429 C   0  0  0  0  0  0  0  0  0  0  0  0
    4.4722   -3.0701   -4.9404 N   0  0  0  0  0  0  0  0  0  0  0  0
    3.5846   -4.1521   -5.0835 C   0  0  0  0  0  0  0  0  0  0  0  0
    4.0933   -5.4248   -5.3723 C   0  0  0  0  0  0  0  0  0  0  0  0
    3.2463   -6.5337   -5.4571 C   0  0  0  0  0  0  0  0  0  0  0  0
    1.8758   -6.3826   -5.2558 C   0  0  0  0  0  0  0  0  0  0  0  0
    1.3622   -5.1250   -4.9630 C   0  0  0  0  0  0  0  0  0  0  0  0
   -0.3312   -4.9272   -4.7133 Cl  0  0  0  0  0  0  0  0  0  0  0  0
    2.2048   -4.0190   -4.8707 C   0  0  0  0  0  0  0  0  0  0  0  0
    4.8919   -0.7595   -4.5850 N   0  0  0  0  0  0  0  0  0  0  0  0
    4.6969    0.3745   -3.8682 C   0  0  0  0  0  0  0  0  0  0  0  0
    5.2813    1.5458   -4.3410 N   0  0  0  0  0  0  0  0  0  0  0  0
    5.1893    1.7980   -5.7789 C   0  0  0  0  0  0  0  0  0  0  0  0
    6.4925    1.3827   -6.4894 C   0  0  0  0  0  0  0  0  0  0  0  0
    6.7683   -0.0546   -6.2647 N   0  3  0  0  0  0  0  0  0  0  0  0
    4.0668    0.4815   -2.6940 N   0  0  0  0  0  0  0  0  0  0  0  0
    3.6208   -0.7005   -2.2419 C   0  0  0  0  0  0  0  0  0  0  0  0
    0.8416    1.1537    0.4962 H   0  0  0  0  0  0  0  0  0  0  0  0
    0.4353   -0.3816   -0.2926 H   0  0  0  0  0  0  0  0  0  0  0  0
    1.0569    0.9648   -1.2552 H   0  0  0  0  0  0  0  0  0  0  0  0
    2.6396   -0.5286    0.9192 H   0  0  0  0  0  0  0  0  0  0  0  0
    3.2683    0.8072   -0.0560 H   0  0  0  0  0  0  0  0  0  0  0  0
    2.2982   -2.8185   -0.1665 H   0  0  0  0  0  0  0  0  0  0  0  0
    5.3082   -3.1222   -5.4960 H   0  0  0  0  0  0  0  0  0  0  0  0
    5.1616   -5.5755   -5.5026 H   0  0  0  0  0  0  0  0  0  0  0  0
    3.6572   -7.5189   -5.6645 H   0  0  0  0  0  0  0  0  0  0  0  0
    1.2204   -7.2484   -5.3172 H   0  0  0  0  0  0  0  0  0  0  0  0
    1.7708   -3.0518   -4.6367 H   0  0  0  0  0  0  0  0  0  0  0  0
    4.8613    2.2809   -3.7665 H   0  0  0  0  0  0  0  0  0  0  0  0
    5.0496    2.8740   -5.9340 H   0  0  0  0  0  0  0  0  0  0  0  0
    4.3225    1.3000   -6.2318 H   0  0  0  0  0  0  0  0  0  0  0  0
    7.3514    1.9245   -6.0829 H   0  0  0  0  0  0  0  0  0  0  0  0
    6.4366    1.5392   -7.5698 H   0  0  0  0  0  0  0  0  0  0  0  0
    6.7256   -0.2324   -5.2462 H   0  0  0  0  0  0  0  0  0  0  0  0
    7.6712   -0.3791   -6.6206 H   0  0  0  0  0  0  0  0  0  0  0  0
    6.0062   -0.6426   -6.6296 H   0  0  0  0  0  0  0  0  0  0  0  0
  1  2  1  0  0  0  0
  1 24  1  0  0  0  0
  1 25  1  0  0  0  0
  1 26  1  0  0  0  0
  2  3  1  0  0  0  0
  2 27  1  0  0  0  0
  2 28  1  0  0  0  0
  3  4  1  0  0  0  0
  3 23  1  0  0  0  0
  4  5  2  0  0  0  0
  4 29  1  0  0  0  0
  5  6  1  0  0  0  0
  6  7  1  0  0  0  0
  6 23  2  0  0  0  0
  7  8  1  0  0  0  0
  7 16  2  0  0  0  0
  8  9  1  0  0  0  0
  8 30  1  0  0  0  0
  9 10  1  0  0  0  0
  9 15  2  0  0  0  0
 10 11  2  0  0  0  0
 10 31  1  0  0  0  0
 11 12  1  0  0  0  0
 11 32  1  0  0  0  0
 12 13  2  0  0  0  0
 12 33  1  0  0  0  0
 13 14  1  0  0  0  0
 13 15  1  0  0  0  0
 15 34  1  0  0  0  0
 16 17  1  0  0  0  0
 17 18  1  0  0  0  0
 17 22  2  0  0  0  0
 18 19  1  0  0  0  0
 18 35  1  0  0  0  0
 19 20  1  0  0  0  0
 19 36  1  0  0  0  0
 19 37  1  0  0  0  0
 20 21  1  0  0  0  0
 20 38  1  0  0  0  0
 20 39  1  0  0  0  0
 21 40  1  0  0  0  0
 21 41  1  0  0  0  0
 21 42  1  0  0  0  0
 22 23  1  0  0  0  0
M  CHG  1  21   1
M  END
$$$$
