REMARK  Name = 
REMARK  3 active torsions:
REMARK  status: ('A' for Active; 'I' for Inactive)
REMARK    1  A    between atoms: C_1  and  C_2
REMARK    2  A    between atoms: N_9  and  C_10
REMARK    3  A    between atoms: C_21  and  N_22
REMARK                            x       y       z     vdW  Elec       q    Type
REMARK                         _______ _______ _______ _____ _____    ______ ____
ROOT
ATOM      1  C   UNL     1      -0.442  -0.237   0.724  0.00  0.00    +0.000 A 
ATOM      2  N   UNL     1      -0.774  -1.105  -0.237  0.00  0.00    +0.000 N 
ATOM      3  C   UNL     1      -0.488  -2.391  -0.120  0.00  0.00    +0.000 A 
ATOM      4  N   UNL     1       0.133  -2.931   0.940  0.00  0.00    +0.000 NA
ATOM      5  C   UNL     1       0.456  -2.095   1.955  0.00  0.00    +0.000 A 
ATOM      6  N   UNL     1       1.129  -2.725   3.008  0.00  0.00    +0.000 N 
ATOM      7  C   UNL     1       1.139  -2.369   4.310  0.00  0.00    +0.000 A 
ATOM      8  N   UNL     1       0.420  -1.400   4.839  0.00  0.00    +0.000 NA
ATOM      9  C   UNL     1       0.745  -1.214   6.167  0.00  0.00    +0.000 A 
ATOM     10  C   UNL     1       1.739  -2.037   6.643  0.00  0.00    +0.000 A 
ATOM     11  S   UNL     1       2.201  -3.150   5.421  0.00  0.00    +0.000 S 
ATOM     12  C   UNL     1       0.157  -0.709   1.906  0.00  0.00    +0.000 A 
ATOM     13  H   UNL     1      -1.171  -0.717  -1.098  0.00  0.00    +0.000 HD
ATOM     14  H   UNL     1      -0.746  -3.039  -0.952  0.00  0.00    +0.000 HD
ATOM     15  H   UNL     1       1.360  -3.686   2.787  0.00  0.00    +0.000 HD
ATOM     16  H   UNL     1       0.242  -0.444   6.736  0.00  0.00    +0.000 HD
ATOM     17  H   UNL     1       2.202  -2.036   7.618  0.00  0.00    +0.000 HD
ENDROOT
BRANCH   1  25
ATOM     18  C   UNL     1      -0.689   1.072  -4.252  0.00  0.00    +0.000 A 
ATOM     19  C   UNL     1      -0.479   1.962  -5.317  0.00  0.00    +0.000 A 
ATOM     20  C   UNL     1      -0.295   3.327  -5.100  0.00  0.00    +0.000 A 
ATOM     21  C   UNL     1      -0.300   3.856  -3.808  0.00  0.00    +0.000 A 
ATOM     22  C   UNL     1      -0.504   2.970  -2.743  0.00  0.00    +0.000 A 
ATOM     23  S   UNL     1      -0.512   3.300  -1.054  0.00  0.00    +0.000 S 
ATOM     24  C   UNL     1      -0.734   1.636  -0.733  0.00  0.00    +0.000 A 
ATOM     25  N   UNL     1      -0.662   1.141   0.523  0.00  0.00    +0.000 N 
ATOM     26  N   UNL     1      -0.900   0.861  -1.783  0.00  0.00    +0.000 NA
ATOM     27  C   UNL     1      -0.713   1.604  -2.940  0.00  0.00    +0.000 A 
ATOM     28  H   UNL     1      -0.447   1.591  -6.342  0.00  0.00    +0.000 HD
ATOM     29  H   UNL     1      -0.132   3.990  -5.948  0.00  0.00    +0.000 HD
ATOM     30  H   UNL     1      -0.131   4.914  -3.639  0.00  0.00    +0.000 HD
ATOM     31  H   UNL     1      -0.145   1.716   1.184  0.00  0.00    +0.000 HD
BRANCH  18  32
ATOM     32  C   UNL     1      -0.818  -0.401  -4.513  0.00  0.00    +0.000 C 
ATOM     33  H   UNL     1      -0.845  -0.627  -5.583  0.00  0.00    +0.000 HD
ATOM     34  H   UNL     1      -1.737  -0.785  -4.059  0.00  0.00    +0.000 HD
ATOM     35  H   UNL     1       0.037  -0.929  -4.074  0.00  0.00    +0.000 HD
ENDBRANCH  18  32
ENDBRANCH   1  25
BRANCH  12  36
ATOM     36  N   UNL     1       0.701   0.253   2.805  0.00  0.00    +0.000 N 
ATOM     37  H   UNL     1       0.924  -0.193   3.704  0.00  0.00    +0.000 HD
ATOM     38  H   UNL     1       0.078   1.024   3.026  0.00  0.00    +0.000 HD
ENDBRANCH  12  36
TORSDOF 3
