REMARK  Name = 
REMARK  6 active torsions:
REMARK  status: ('A' for Active; 'I' for Inactive)
REMARK    1  A    between atoms: C_1  and  C_2
REMARK    2  A    between atoms: C_5  and  N_6
REMARK    3  A    between atoms: C_7  and  C_9
REMARK    4  A    between atoms: N_11  and  C_12
REMARK    5  A    between atoms: C_19  and  C_21
REMARK    6  A    between atoms: C_27  and  C_28
REMARK                            x       y       z     vdW  Elec       q    Type
REMARK                         _______ _______ _______ _____ _____    ______ ____
ROOT
ATOM      1  C   UNL     1      -1.172  -0.699   0.631  0.00  0.00    +0.000 A 
ATOM      2  C   UNL     1      -1.348  -1.834   1.421  0.00  0.00    +0.000 A 
ATOM      3  C   UNL     1      -2.558  -2.517   1.395  0.00  0.00    +0.000 A 
ATOM      4  C   UNL     1      -3.603  -2.097   0.559  0.00  0.00    +0.000 A 
ATOM      5  C   UNL     1      -3.426  -0.975  -0.277  0.00  0.00    +0.000 A 
ATOM      6  C   UNL     1      -2.212  -0.273  -0.206  0.00  0.00    +0.000 A 
ATOM      7  N   UNL     1      -4.490  -0.577  -1.163  0.00  0.00    +0.000 N 
ATOM      8  C   UNL     1      -4.220   0.034  -2.401  0.00  0.00    +0.000 C 
ATOM      9  O   UNL     1      -3.094   0.273  -2.829  0.00  0.00    +0.000 OA
ATOM     10  C   UNL     1      -5.825  -1.009  -0.728  0.00  0.00    +0.000 C 
ATOM     11  C   UNL     1      -5.852  -2.510  -0.511  0.00  0.00    +0.000 C 
ATOM     12  C   UNL     1      -4.890  -2.879   0.605  0.00  0.00    +0.000 C 
ATOM     13  H   UNL     1      -0.575  -2.190   2.092  0.00  0.00    +0.000 HD
ATOM     14  H   UNL     1      -2.681  -3.390   2.032  0.00  0.00    +0.000 HD
ATOM     15  H   UNL     1      -2.071   0.627  -0.799  0.00  0.00    +0.000 HD
ATOM     16  H   UNL     1      -6.606  -0.748  -1.440  0.00  0.00    +0.000 HD
ATOM     17  H   UNL     1      -6.057  -0.472   0.203  0.00  0.00    +0.000 HD
ATOM     18  H   UNL     1      -5.563  -3.019  -1.439  0.00  0.00    +0.000 HD
ATOM     19  H   UNL     1      -6.862  -2.845  -0.254  0.00  0.00    +0.000 HD
ATOM     20  H   UNL     1      -4.678  -3.954   0.549  0.00  0.00    +0.000 HD
ATOM     21  H   UNL     1      -5.366  -2.686   1.575  0.00  0.00    +0.000 HD
ENDROOT
BRANCH   8  22
ATOM     22  C   UNL     1      -5.377   0.346  -3.310  0.00  0.00    +0.000 C 
ATOM     23  C   UNL     1      -5.442  -0.334  -4.664  0.00  0.00    +0.000 C 
ATOM     24  C   UNL     1      -5.174   1.139  -4.585  0.00  0.00    +0.000 C 
ATOM     25  H   UNL     1      -6.310   0.597  -2.821  0.00  0.00    +0.000 HD
ATOM     26  H   UNL     1      -6.406  -0.659  -5.034  0.00  0.00    +0.000 HD
ATOM     27  H   UNL     1      -4.613  -0.964  -4.974  0.00  0.00    +0.000 HD
ATOM     28  H   UNL     1      -5.964   1.814  -4.893  0.00  0.00    +0.000 HD
ATOM     29  H   UNL     1      -4.177   1.492  -4.824  0.00  0.00    +0.000 HD
ENDBRANCH   8  22
BRANCH   1  32
ATOM     30  C   UNL     1       1.214  -0.292   1.219  0.00  0.00    +0.000 C 
ATOM     31  O   UNL     1       1.538  -1.336   1.770  0.00  0.00    +0.000 OA
ATOM     32  N   UNL     1       0.008   0.062   0.652  0.00  0.00    +0.000 N 
ATOM     33  H   UNL     1       0.010   0.955   0.162  0.00  0.00    +0.000 HD
BRANCH  30  35
ATOM     34  N   UNL     1       3.529   0.377   1.451  0.00  0.00    +0.000 N 
ATOM     35  C   UNL     1       2.275   0.808   1.066  0.00  0.00    +0.000 C 
ATOM     36  O   UNL     1       1.916   1.892   0.626  0.00  0.00    +0.000 OA
ATOM     37  H   UNL     1       3.542  -0.584   1.778  0.00  0.00    +0.000 HD
BRANCH  34  41
ATOM     38  C   UNL     1       7.138   2.599   1.420  0.00  0.00    +0.000 A 
ATOM     39  C   UNL     1       5.942   3.183   1.013  0.00  0.00    +0.000 A 
ATOM     40  C   UNL     1       4.759   2.445   1.023  0.00  0.00    +0.000 A 
ATOM     41  C   UNL     1       4.735   1.105   1.440  0.00  0.00    +0.000 A 
ATOM     42  C   UNL     1       5.941   0.499   1.847  0.00  0.00    +0.000 A 
ATOM     43  C   UNL     1       7.129   1.263   1.831  0.00  0.00    +0.000 A 
ATOM     44  H   UNL     1       5.911   4.219   0.683  0.00  0.00    +0.000 HD
ATOM     45  H   UNL     1       3.862   2.963   0.697  0.00  0.00    +0.000 HD
ATOM     46  H   UNL     1       8.065   0.803   2.150  0.00  0.00    +0.000 HD
BRANCH  38  47
ATOM     47  C   UNL     1       8.412   3.390   1.414  0.00  0.00    +0.000 C 
ATOM     48  H   UNL     1       8.242   4.418   1.075  0.00  0.00    +0.000 HD
ATOM     49  H   UNL     1       9.138   2.931   0.735  0.00  0.00    +0.000 HD
ATOM     50  H   UNL     1       8.833   3.436   2.422  0.00  0.00    +0.000 HD
ENDBRANCH  38  47
BRANCH  42  51
ATOM     51  C   UNL     1       6.079  -0.927   2.312  0.00  0.00    +0.000 C 
ATOM     52  H   UNL     1       5.157  -1.507   2.263  0.00  0.00    +0.000 HD
ATOM     53  H   UNL     1       6.425  -0.947   3.351  0.00  0.00    +0.000 HD
ATOM     54  H   UNL     1       6.815  -1.448   1.689  0.00  0.00    +0.000 HD
ENDBRANCH  42  51
ENDBRANCH  34  41
ENDBRANCH  30  35
ENDBRANCH   1  32
TORSDOF 6
