REMARK  Name = 
REMARK  3 active torsions:
REMARK  status: ('A' for Active; 'I' for Inactive)
REMARK    1  A    between atoms: C_2  and  C_12
REMARK    2  A    between atoms: N_3  and  C_4
REMARK    3  A    between atoms: N_16  and  C_17
REMARK                            x       y       z     vdW  Elec       q    Type
REMARK                         _______ _______ _______ _____ _____    ______ ____
ROOT
ATOM      1  C   UNL     1      -0.527  -0.297   0.085  0.00  0.00    +0.000 A 
ATOM      2  C   UNL     1      -0.853  -0.475   1.364  0.00  0.00    +0.000 A 
ATOM      3  C   UNL     1      -0.118   0.248   2.410  0.00  0.00    +0.000 A 
ATOM      4  O   UNL     1      -0.427   0.015   3.577  0.00  0.00    +0.000 OA
ATOM      5  N   UNL     1       0.891   1.104   1.979  0.00  0.00    +0.000 N 
ATOM      6  C   UNL     1       1.237   1.259   0.635  0.00  0.00    +0.000 A 
ATOM      7  O   UNL     1       2.098   2.018   0.191  0.00  0.00    +0.000 OA
ATOM      8  N   UNL     1       0.500   0.529  -0.268  0.00  0.00    +0.000 N 
ATOM      9  H   UNL     1      -1.660  -1.118   1.696  0.00  0.00    +0.000 HD
ATOM     10  H   UNL     1       0.689   0.747  -1.238  0.00  0.00    +0.000 HD
ENDROOT
BRANCH   5  11
ATOM     11  C   UNL     1       1.595   1.857   2.969  0.00  0.00    +0.000 A 
ATOM     12  C   UNL     1       2.994   1.836   3.017  0.00  0.00    +0.000 A 
ATOM     13  C   UNL     1       3.676   2.527   4.024  0.00  0.00    +0.000 A 
ATOM     14  C   UNL     1       2.963   3.273   4.960  0.00  0.00    +0.000 A 
ATOM     15 CL   UNL     1       3.806   4.131   6.190  0.00  0.00    +0.000 Cl
ATOM     16  C   UNL     1       1.573   3.324   4.910  0.00  0.00    +0.000 A 
ATOM     17  C   UNL     1       0.890   2.603   3.927  0.00  0.00    +0.000 A 
ATOM     18  H   UNL     1       3.566   1.248   2.304  0.00  0.00    +0.000 HD
ATOM     19  H   UNL     1       4.760   2.471   4.074  0.00  0.00    +0.000 HD
ATOM     20  H   UNL     1       1.014   3.914   5.631  0.00  0.00    +0.000 HD
ATOM     21  H   UNL     1      -0.198   2.650   3.906  0.00  0.00    +0.000 HD
ENDBRANCH   5  11
BRANCH   1  23
ATOM     22  O   UNL     1      -2.531  -1.314  -0.607  0.00  0.00    +0.000 OA
ATOM     23  C   UNL     1      -1.392  -0.982  -0.926  0.00  0.00    +0.000 C 
ATOM     24  N   UNL     1      -0.799  -1.226  -2.150  0.00  0.00    +0.000 N 
ATOM     25  H   UNL     1       0.207  -1.129  -2.215  0.00  0.00    +0.000 HD
BRANCH  24  26
ATOM     26  C   UNL     1      -1.461  -1.831  -3.249  0.00  0.00    +0.000 A 
ATOM     27  C   UNL     1      -2.854  -1.923  -3.335  0.00  0.00    +0.000 A 
ATOM     28  C   UNL     1      -3.471  -2.601  -4.389  0.00  0.00    +0.000 A 
ATOM     29  C   UNL     1      -2.698  -3.185  -5.389  0.00  0.00    +0.000 A 
ATOM     30 CL   UNL     1      -3.523  -4.049  -6.636  0.00  0.00    +0.000 Cl
ATOM     31  C   UNL     1      -1.306  -3.058  -5.343  0.00  0.00    +0.000 A 
ATOM     32 CL   UNL     1      -0.284  -3.749  -6.556  0.00  0.00    +0.000 Cl
ATOM     33  C   UNL     1      -0.689  -2.374  -4.284  0.00  0.00    +0.000 A 
ATOM     34  H   UNL     1      -3.505  -1.470  -2.591  0.00  0.00    +0.000 HD
ATOM     35  H   UNL     1      -4.556  -2.673  -4.407  0.00  0.00    +0.000 HD
ATOM     36  H   UNL     1       0.394  -2.300  -4.266  0.00  0.00    +0.000 HD
ENDBRANCH  24  26
ENDBRANCH   1  23
TORSDOF 3
