
 OpenBabel01112423043D

 41 43  0  0  1  0  0  0  0  0999 V2000
    2.2693    8.2940    3.9773 N   0  0  0  0  0  0  0  0  0  0  0  0
    1.8158    7.2702    4.8386 C   0  0  0  0  0  0  0  0  0  0  0  0
    1.5590    5.9796    4.3204 C   0  0  0  0  0  0  0  0  0  0  0  0
    1.6216    5.8242    2.9238 N   0  0  0  0  0  0  0  0  0  0  0  0
    0.7618    4.7772    2.3559 C   0  0  0  0  0  0  0  0  0  0  0  0
   -0.6588    5.3426    2.1121 C   0  0  1  0  0  0  0  0  0  0  0  0
   -1.5845    4.3455    1.4321 C   0  0  0  0  0  0  0  0  0  0  0  0
   -2.2405    3.6507    2.5979 C   0  0  0  0  0  0  0  0  0  0  0  0
   -2.3651    4.7652    3.6112 C   0  0  0  0  0  0  0  0  0  0  0  0
   -1.2882    5.6794    3.3716 O   0  0  0  0  0  0  0  0  0  0  0  0
    1.3127    4.9155    5.1077 N   0  0  0  0  0  0  0  0  0  0  0  0
    1.3202    5.1436    6.4243 C   0  0  0  0  0  0  0  0  0  0  0  0
    1.5522    6.3236    6.9867 N   0  3  0  0  0  0  0  0  0  0  0  0
    1.8088    7.4033    6.2390 C   0  0  0  0  0  0  0  0  0  0  0  0
    2.0857    8.6312    6.8699 N   0  0  0  0  0  0  0  0  0  0  0  0
    2.4155    8.8048    8.2276 C   0  0  0  0  0  0  0  0  0  0  0  0
    3.4040    8.0039    8.8216 C   0  0  0  0  0  0  0  0  0  0  0  0
    3.6278    8.0488   10.1978 C   0  0  0  0  0  0  0  0  0  0  0  0
    2.8710    8.9062   10.9910 C   0  0  0  0  0  0  0  0  0  0  0  0
    3.1033    8.9155   12.6922 Cl  0  0  0  0  0  0  0  0  0  0  0  0
    1.9149    9.7382   10.4122 C   0  0  0  0  0  0  0  0  0  0  0  0
    1.6870    9.6885    9.0319 C   0  0  0  0  0  0  0  0  0  0  0  0
    1.9364    8.1330    3.0217 H   0  0  0  0  0  0  0  0  0  0  0  0
    2.1521    9.2523    4.2786 H   0  0  0  0  0  0  0  0  0  0  0  0
    2.5981    5.7500    2.6397 H   0  0  0  0  0  0  0  0  0  0  0  0
    0.7377    3.8778    2.9822 H   0  0  0  0  0  0  0  0  0  0  0  0
    1.1915    4.4791    1.3924 H   0  0  0  0  0  0  0  0  0  0  0  0
   -0.5802    6.2601    1.5168 H   0  0  0  0  0  0  0  0  0  0  0  0
   -1.0771    3.6624    0.7452 H   0  0  0  0  0  0  0  0  0  0  0  0
   -2.3485    4.8883    0.8615 H   0  0  0  0  0  0  0  0  0  0  0  0
   -1.5822    2.8641    2.9835 H   0  0  0  0  0  0  0  0  0  0  0  0
   -3.2037    3.1963    2.3511 H   0  0  0  0  0  0  0  0  0  0  0  0
   -2.3057    4.4010    4.6407 H   0  0  0  0  0  0  0  0  0  0  0  0
   -3.3037    5.3153    3.4893 H   0  0  0  0  0  0  0  0  0  0  0  0
    1.1414    4.3021    7.0861 H   0  0  0  0  0  0  0  0  0  0  0  0
    1.5334    6.4215    7.9954 H   0  0  0  0  0  0  0  0  0  0  0  0
    1.5557    9.4019    6.4666 H   0  0  0  0  0  0  0  0  0  0  0  0
    4.0318    7.3562    8.2127 H   0  0  0  0  0  0  0  0  0  0  0  0
    4.3949    7.4197   10.6440 H   0  0  0  0  0  0  0  0  0  0  0  0
    1.3380   10.4210   11.0329 H   0  0  0  0  0  0  0  0  0  0  0  0
    0.9236   10.3394    8.6094 H   0  0  0  0  0  0  0  0  0  0  0  0
  1  2  1  0  0  0  0
  1 23  1  0  0  0  0
  1 24  1  0  0  0  0
  2  3  1  0  0  0  0
  2 14  2  0  0  0  0
  3  4  1  0  0  0  0
  3 11  2  0  0  0  0
  4  5  1  0  0  0  0
  4 25  1  0  0  0  0
  5 26  1  0  0  0  0
  5 27  1  0  0  0  0
  6  7  1  0  0  0  0
  6 10  1  0  0  0  0
  6  5  1  0  0  0  0
  6 28  1  6  0  0  0
  7  8  1  0  0  0  0
  7 29  1  0  0  0  0
  7 30  1  0  0  0  0
  8  9  1  0  0  0  0
  8 31  1  0  0  0  0
  8 32  1  0  0  0  0
  9 10  1  0  0  0  0
  9 33  1  0  0  0  0
  9 34  1  0  0  0  0
 11 12  1  0  0  0  0
 12 13  2  0  0  0  0
 12 35  1  0  0  0  0
 13 14  1  0  0  0  0
 13 36  1  0  0  0  0
 14 15  1  0  0  0  0
 15 16  1  0  0  0  0
 15 37  1  0  0  0  0
 16 17  1  0  0  0  0
 16 22  2  0  0  0  0
 17 18  2  0  0  0  0
 17 38  1  0  0  0  0
 18 19  1  0  0  0  0
 18 39  1  0  0  0  0
 19 20  1  0  0  0  0
 19 21  2  0  0  0  0
 21 22  1  0  0  0  0
 21 40  1  0  0  0  0
 22 41  1  0  0  0  0
M  CHG  1  13   1
M  END
$$$$
