MODEL 1
REMARK VINA RESULT:   -11.433      0.000      0.000
REMARK INTER + INTRA:         -14.790
REMARK INTER:                 -13.773
REMARK INTRA:                  -1.018
REMARK UNBOUND:                -1.018
REMARK  Name = 
REMARK  4 active torsions:
REMARK  status: ('A' for Active; 'I' for Inactive)
REMARK    1  A    between atoms: C_1  and  N_2
REMARK    2  A    between atoms: C_6  and  C_8
REMARK    3  A    between atoms: C_11  and  C_12
REMARK    4  A    between atoms: C_26  and  C_27
REMARK                            x       y       z     vdW  Elec       q    Type
REMARK                         _______ _______ _______ _____ _____    ______ ____
ROOT
ATOM      1  N   UNL     1      -8.269  -1.609  21.984  0.00  0.00    +0.000 N 
ATOM      2  N   UNL     1      -8.007  -2.811  21.472  0.00  0.00    +0.000 NA
ATOM      3  C   UNL     1      -8.970  -3.051  20.576  0.00  0.00    +0.000 A 
ATOM      4  N   UNL     1      -9.073  -4.243  19.868  0.00  0.00    +0.000 N 
ATOM      5  C   UNL     1      -8.144  -5.271  19.973  0.00  0.00    +0.000 C 
ATOM      6  O   UNL     1      -7.073  -5.236  20.577  0.00  0.00    +0.000 OA
ATOM      7  C   UNL     1      -9.859  -1.926  20.509  0.00  0.00    +0.000 A 
ATOM      8  C   UNL     1      -9.429  -1.090  21.508  0.00  0.00    +0.000 A 
ATOM      9  N   UNL     1     -10.142   0.009  21.916  0.00  0.00    +0.000 N 
ATOM     10  C   UNL     1     -11.371   0.320  21.266  0.00  0.00    +0.000 C 
ATOM     11  O   UNL     1     -12.101   1.110  21.840  0.00  0.00    +0.000 OA
ATOM     12  C   UNL     1     -11.589  -0.202  19.869  0.00  0.00    +0.000 C 
ATOM     13  C   UNL     1     -11.046  -1.629  19.653  0.00  0.00    +0.000 C 
ATOM     14  H   UNL     1      -9.842  -4.343  19.225  0.00  0.00    +0.000 HD
ATOM     15  H   UNL     1      -9.901   0.527  22.753  0.00  0.00    +0.000 HD
ATOM     16  H   UNL     1     -11.100   0.530  19.212  0.00  0.00    +0.000 HD
ATOM     17  H   UNL     1     -12.659  -0.170  19.641  0.00  0.00    +0.000 HD
ATOM     18  H   UNL     1     -11.841  -2.331  19.939  0.00  0.00    +0.000 HD
ENDROOT
BRANCH   5  19
ATOM     19  C   UNL     1      -8.460  -6.548  19.271  0.00  0.00    +0.000 A 
ATOM     20  C   UNL     1      -8.382  -6.571  17.873  0.00  0.00    +0.000 A 
ATOM     21  C   UNL     1      -8.537  -7.772  17.165  0.00  0.00    +0.000 A 
ATOM     22  C   UNL     1      -8.759  -8.992  17.829  0.00  0.00    +0.000 A 
ATOM     23  C   UNL     1      -8.844  -8.941  19.234  0.00  0.00    +0.000 A 
ATOM     24  C   UNL     1      -8.695  -7.738  19.952  0.00  0.00    +0.000 A 
ATOM     25  H   UNL     1      -8.165  -5.654  17.325  0.00  0.00    +0.000 HD
ATOM     26  H   UNL     1      -8.455  -7.735  16.080  0.00  0.00    +0.000 HD
ATOM     27  H   UNL     1      -8.974  -9.862  19.802  0.00  0.00    +0.000 HD
ATOM     28  H   UNL     1      -8.690  -7.782  21.038  0.00  0.00    +0.000 HD
BRANCH  22  29
ATOM     29  C   UNL     1      -8.845 -10.281  17.090  0.00  0.00    +0.000 A 
ATOM     30  C   UNL     1      -9.170 -10.329  15.722  0.00  0.00    +0.000 A 
ATOM     31  C   UNL     1      -9.205 -11.537  15.012  0.00  0.00    +0.000 A 
ATOM     32  C   UNL     1      -8.906 -12.732  15.657  0.00  0.00    +0.000 A 
ATOM     33  C   UNL     1      -8.588 -12.720  17.011  0.00  0.00    +0.000 A 
ATOM     34  C   UNL     1      -8.565 -11.510  17.717  0.00  0.00    +0.000 A 
ATOM     35  H   UNL     1      -9.382  -9.416  15.168  0.00  0.00    +0.000 HD
ATOM     36  H   UNL     1      -9.452 -11.539  13.957  0.00  0.00    +0.000 HD
ATOM     37  H   UNL     1      -8.921 -13.670  15.108  0.00  0.00    +0.000 HD
ATOM     38  H   UNL     1      -8.350 -13.650  17.520  0.00  0.00    +0.000 HD
ATOM     39  H   UNL     1      -8.324 -11.549  18.777  0.00  0.00    +0.000 HD
ENDBRANCH  22  29
ENDBRANCH   5  19
BRANCH  13  40
ATOM     40  C   UNL     1     -10.667  -1.823  18.201  0.00  0.00    +0.000 A 
ATOM     41  C   UNL     1     -11.162  -2.755  17.303  0.00  0.00    +0.000 A 
ATOM     42  C   UNL     1     -10.784  -2.463  15.963  0.00  0.00    +0.000 A 
ATOM     43  C   UNL     1      -9.958  -1.363  15.895  0.00  0.00    +0.000 A 
ATOM     44  S   UNL     1      -9.586  -0.735  17.439  0.00  0.00    +0.000 S 
ATOM     45  H   UNL     1     -11.842  -3.557  17.568  0.00  0.00    +0.000 HD
ATOM     46  H   UNL     1     -11.126  -3.007  15.093  0.00  0.00    +0.000 HD
ATOM     47  H   UNL     1      -9.548  -0.900  15.004  0.00  0.00    +0.000 HD
ENDBRANCH  13  40
BRANCH   1  48
ATOM     48  C   UNL     1      -7.356  -1.012  22.926  0.00  0.00    +0.000 C 
ATOM     49  H   UNL     1      -6.677  -0.334  22.404  0.00  0.00    +0.000 HD
ATOM     50  H   UNL     1      -6.792  -1.810  23.414  0.00  0.00    +0.000 HD
ATOM     51  H   UNL     1      -7.942  -0.453  23.661  0.00  0.00    +0.000 HD
ENDBRANCH   1  48
TORSDOF 4
ENDMDL
MODEL 2
REMARK VINA RESULT:   -11.372      2.351      3.118
REMARK INTER + INTRA:         -14.717
REMARK INTER:                 -13.646
REMARK INTRA:                  -1.071
REMARK UNBOUND:                -1.018
REMARK  Name = 
REMARK  4 active torsions:
REMARK  status: ('A' for Active; 'I' for Inactive)
REMARK    1  A    between atoms: C_1  and  N_2
REMARK    2  A    between atoms: C_6  and  C_8
REMARK    3  A    between atoms: C_11  and  C_12
REMARK    4  A    between atoms: C_26  and  C_27
REMARK                            x       y       z     vdW  Elec       q    Type
REMARK                         _______ _______ _______ _____ _____    ______ ____
ROOT
ATOM      1  N   UNL     1     -10.285  -1.097  18.688  0.00  0.00    +0.000 N 
ATOM      2  N   UNL     1      -9.824  -2.346  18.690  0.00  0.00    +0.000 NA
ATOM      3  C   UNL     1     -10.464  -2.981  17.702  0.00  0.00    +0.000 A 
ATOM      4  N   UNL     1     -10.294  -4.333  17.428  0.00  0.00    +0.000 N 
ATOM      5  C   UNL     1      -9.387  -5.138  18.108  0.00  0.00    +0.000 C 
ATOM      6  O   UNL     1      -8.546  -4.769  18.926  0.00  0.00    +0.000 OA
ATOM      7  C   UNL     1     -11.348  -2.069  17.036  0.00  0.00    +0.000 A 
ATOM      8  C   UNL     1     -11.276  -0.917  17.778  0.00  0.00    +0.000 A 
ATOM      9  N   UNL     1     -12.132   0.139  17.596  0.00  0.00    +0.000 N 
ATOM     10  C   UNL     1     -13.127   0.061  16.579  0.00  0.00    +0.000 C 
ATOM     11  O   UNL     1     -14.033   0.874  16.646  0.00  0.00    +0.000 OA
ATOM     12  C   UNL     1     -12.895  -0.884  15.429  0.00  0.00    +0.000 C 
ATOM     13  C   UNL     1     -12.242  -2.217  15.848  0.00  0.00    +0.000 C 
ATOM     14  H   UNL     1     -10.831  -4.732  16.675  0.00  0.00    +0.000 HD
ATOM     15  H   UNL     1     -12.176   0.915  18.247  0.00  0.00    +0.000 HD
ATOM     16  H   UNL     1     -12.271  -0.323  14.721  0.00  0.00    +0.000 HD
ATOM     17  H   UNL     1     -13.849  -1.076  14.929  0.00  0.00    +0.000 HD
ATOM     18  H   UNL     1     -13.050  -2.906  16.129  0.00  0.00    +0.000 HD
ENDROOT
BRANCH   5  19
ATOM     19  C   UNL     1      -9.417  -6.598  17.810  0.00  0.00    +0.000 A 
ATOM     20  C   UNL     1      -9.402  -7.000  16.469  0.00  0.00    +0.000 A 
ATOM     21  C   UNL     1      -9.294  -8.356  16.127  0.00  0.00    +0.000 A 
ATOM     22  C   UNL     1      -9.181  -9.355  17.111  0.00  0.00    +0.000 A 
ATOM     23  C   UNL     1      -9.208  -8.926  18.453  0.00  0.00    +0.000 A 
ATOM     24  C   UNL     1      -9.322  -7.567  18.805  0.00  0.00    +0.000 A 
ATOM     25  H   UNL     1      -9.440  -6.253  15.676  0.00  0.00    +0.000 HD
ATOM     26  H   UNL     1      -9.275  -8.612  15.069  0.00  0.00    +0.000 HD
ATOM     27  H   UNL     1      -9.084  -9.652  19.255  0.00  0.00    +0.000 HD
ATOM     28  H   UNL     1      -9.255  -7.298  19.855  0.00  0.00    +0.000 HD
BRANCH  22  29
ATOM     29  C   UNL     1      -8.986 -10.786  16.755  0.00  0.00    +0.000 A 
ATOM     30  C   UNL     1      -8.937 -11.216  15.416  0.00  0.00    +0.000 A 
ATOM     31  C   UNL     1      -8.707 -12.556  15.077  0.00  0.00    +0.000 A 
ATOM     32  C   UNL     1      -8.510 -13.503  16.075  0.00  0.00    +0.000 A 
ATOM     33  C   UNL     1      -8.560 -13.113  17.410  0.00  0.00    +0.000 A 
ATOM     34  C   UNL     1      -8.801 -11.773  17.742  0.00  0.00    +0.000 A 
ATOM     35  H   UNL     1      -9.056 -10.505  14.600  0.00  0.00    +0.000 HD
ATOM     36  H   UNL     1      -8.668 -12.852  14.035  0.00  0.00    +0.000 HD
ATOM     37  H   UNL     1      -8.321 -14.541  15.817  0.00  0.00    +0.000 HD
ATOM     38  H   UNL     1      -8.404 -13.847  18.195  0.00  0.00    +0.000 HD
ATOM     39  H   UNL     1      -8.844 -11.515  18.798  0.00  0.00    +0.000 HD
ENDBRANCH  22  29
ENDBRANCH   5  19
BRANCH  13  40
ATOM     40  C   UNL     1     -11.440  -2.783  14.696  0.00  0.00    +0.000 A 
ATOM     41  C   UNL     1     -11.612  -3.995  14.046  0.00  0.00    +0.000 A 
ATOM     42  C   UNL     1     -10.862  -4.069  12.840  0.00  0.00    +0.000 A 
ATOM     43  C   UNL     1     -10.091  -2.944  12.650  0.00  0.00    +0.000 A 
ATOM     44  S   UNL     1     -10.218  -1.844  13.951  0.00  0.00    +0.000 S 
ATOM     45  H   UNL     1     -12.314  -4.761  14.359  0.00  0.00    +0.000 HD
ATOM     46  H   UNL     1     -10.911  -4.886  12.133  0.00  0.00    +0.000 HD
ATOM     47  H   UNL     1      -9.450  -2.718  11.806  0.00  0.00    +0.000 HD
ENDBRANCH  13  40
BRANCH   1  48
ATOM     48  C   UNL     1      -9.723  -0.119  19.585  0.00  0.00    +0.000 C 
ATOM     49  H   UNL     1     -10.073  -0.308  20.603  0.00  0.00    +0.000 HD
ATOM     50  H   UNL     1     -10.039   0.873  19.256  0.00  0.00    +0.000 HD
ATOM     51  H   UNL     1      -8.634  -0.207  19.547  0.00  0.00    +0.000 HD
ENDBRANCH   1  48
TORSDOF 4
ENDMDL
MODEL 3
REMARK VINA RESULT:   -10.729      2.560      3.585
REMARK INTER + INTRA:         -13.942
REMARK INTER:                 -12.895
REMARK INTRA:                  -1.047
REMARK UNBOUND:                -1.018
REMARK  Name = 
REMARK  4 active torsions:
REMARK  status: ('A' for Active; 'I' for Inactive)
REMARK    1  A    between atoms: C_1  and  N_2
REMARK    2  A    between atoms: C_6  and  C_8
REMARK    3  A    between atoms: C_11  and  C_12
REMARK    4  A    between atoms: C_26  and  C_27
REMARK                            x       y       z     vdW  Elec       q    Type
REMARK                         _______ _______ _______ _____ _____    ______ ____
ROOT
ATOM      1  N   UNL     1     -11.075  -0.807  18.578  0.00  0.00    +0.000 N 
ATOM      2  N   UNL     1     -10.435  -1.971  18.680  0.00  0.00    +0.000 NA
ATOM      3  C   UNL     1     -10.697  -2.638  17.551  0.00  0.00    +0.000 A 
ATOM      4  N   UNL     1     -10.249  -3.932  17.308  0.00  0.00    +0.000 N 
ATOM      5  C   UNL     1      -9.427  -4.628  18.186  0.00  0.00    +0.000 C 
ATOM      6  O   UNL     1      -8.889  -4.183  19.200  0.00  0.00    +0.000 OA
ATOM      7  C   UNL     1     -11.518  -1.833  16.693  0.00  0.00    +0.000 A 
ATOM      8  C   UNL     1     -11.820  -0.727  17.447  0.00  0.00    +0.000 A 
ATOM      9  N   UNL     1     -12.759   0.198  17.067  0.00  0.00    +0.000 N 
ATOM     10  C   UNL     1     -13.440   0.028  15.827  0.00  0.00    +0.000 C 
ATOM     11  O   UNL     1     -14.452   0.691  15.671  0.00  0.00    +0.000 OA
ATOM     12  C   UNL     1     -12.778  -0.806  14.761  0.00  0.00    +0.000 C 
ATOM     13  C   UNL     1     -12.048  -2.046  15.313  0.00  0.00    +0.000 C 
ATOM     14  H   UNL     1     -10.509  -4.363  16.436  0.00  0.00    +0.000 HD
ATOM     15  H   UNL     1     -13.089   0.920  17.696  0.00  0.00    +0.000 HD
ATOM     16  H   UNL     1     -12.093  -0.119  14.246  0.00  0.00    +0.000 HD
ATOM     17  H   UNL     1     -13.532  -1.111  14.029  0.00  0.00    +0.000 HD
ATOM     18  H   UNL     1     -12.780  -2.864  15.365  0.00  0.00    +0.000 HD
ENDROOT
BRANCH   5  19
ATOM     19  C   UNL     1      -9.147  -6.057  17.868  0.00  0.00    +0.000 A 
ATOM     20  C   UNL     1      -9.200  -6.990  18.910  0.00  0.00    +0.000 A 
ATOM     21  C   UNL     1      -9.079  -8.363  18.652  0.00  0.00    +0.000 A 
ATOM     22  C   UNL     1      -8.916  -8.852  17.342  0.00  0.00    +0.000 A 
ATOM     23  C   UNL     1      -8.856  -7.894  16.312  0.00  0.00    +0.000 A 
ATOM     24  C   UNL     1      -8.971  -6.513  16.564  0.00  0.00    +0.000 A 
ATOM     25  H   UNL     1      -9.371  -6.655  19.933  0.00  0.00    +0.000 HD
ATOM     26  H   UNL     1      -9.139  -9.046  19.498  0.00  0.00    +0.000 HD
ATOM     27  H   UNL     1      -8.772  -8.218  15.276  0.00  0.00    +0.000 HD
ATOM     28  H   UNL     1      -8.999  -5.833  15.716  0.00  0.00    +0.000 HD
BRANCH  22  29
ATOM     29  C   UNL     1      -8.867 -10.311  17.053  0.00  0.00    +0.000 A 
ATOM     30  C   UNL     1      -8.973 -10.810  15.741  0.00  0.00    +0.000 A 
ATOM     31  C   UNL     1      -8.879 -12.179  15.461  0.00  0.00    +0.000 A 
ATOM     32  C   UNL     1      -8.668 -13.088  16.492  0.00  0.00    +0.000 A 
ATOM     33  C   UNL     1      -8.565 -12.629  17.801  0.00  0.00    +0.000 A 
ATOM     34  C   UNL     1      -8.671 -11.259  18.075  0.00  0.00    +0.000 A 
ATOM     35  H   UNL     1      -9.109 -10.134  14.899  0.00  0.00    +0.000 HD
ATOM     36  H   UNL     1      -8.958 -12.530  14.439  0.00  0.00    +0.000 HD
ATOM     37  H   UNL     1      -8.584 -14.150  16.278  0.00  0.00    +0.000 HD
ATOM     38  H   UNL     1      -8.397 -13.333  18.611  0.00  0.00    +0.000 HD
ATOM     39  H   UNL     1      -8.598 -10.946  19.114  0.00  0.00    +0.000 HD
ENDBRANCH  22  29
ENDBRANCH   5  19
BRANCH  13  40
ATOM     40  C   UNL     1     -10.902  -2.421  14.398  0.00  0.00    +0.000 A 
ATOM     41  C   UNL     1      -9.812  -1.649  14.028  0.00  0.00    +0.000 A 
ATOM     42  C   UNL     1      -8.803  -2.418  13.386  0.00  0.00    +0.000 A 
ATOM     43  C   UNL     1      -9.187  -3.730  13.225  0.00  0.00    +0.000 A 
ATOM     44  S   UNL     1     -10.779  -4.012  13.777  0.00  0.00    +0.000 S 
ATOM     45  H   UNL     1      -9.690  -0.603  14.286  0.00  0.00    +0.000 HD
ATOM     46  H   UNL     1      -7.834  -2.039  13.090  0.00  0.00    +0.000 HD
ATOM     47  H   UNL     1      -8.606  -4.541  12.799  0.00  0.00    +0.000 HD
ENDBRANCH  13  40
BRANCH   1  48
ATOM     48  C   UNL     1     -10.921   0.193  19.605  0.00  0.00    +0.000 C 
ATOM     49  H   UNL     1     -10.876  -0.288  20.585  0.00  0.00    +0.000 HD
ATOM     50  H   UNL     1     -11.774   0.873  19.556  0.00  0.00    +0.000 HD
ATOM     51  H   UNL     1      -9.989   0.734  19.418  0.00  0.00    +0.000 HD
ENDBRANCH   1  48
TORSDOF 4
ENDMDL
MODEL 4
REMARK VINA RESULT:    -9.715      3.284      4.747
REMARK INTER + INTRA:         -12.721
REMARK INTER:                 -11.751
REMARK INTRA:                  -0.969
REMARK UNBOUND:                -1.018
REMARK  Name = 
REMARK  4 active torsions:
REMARK  status: ('A' for Active; 'I' for Inactive)
REMARK    1  A    between atoms: C_1  and  N_2
REMARK    2  A    between atoms: C_6  and  C_8
REMARK    3  A    between atoms: C_11  and  C_12
REMARK    4  A    between atoms: C_26  and  C_27
REMARK                            x       y       z     vdW  Elec       q    Type
REMARK                         _______ _______ _______ _____ _____    ______ ____
ROOT
ATOM      1  N   UNL     1     -11.471  -0.480  14.658  0.00  0.00    +0.000 N 
ATOM      2  N   UNL     1     -11.472  -1.807  14.780  0.00  0.00    +0.000 NA
ATOM      3  C   UNL     1     -10.636  -2.089  15.785  0.00  0.00    +0.000 A 
ATOM      4  N   UNL     1     -10.325  -3.385  16.177  0.00  0.00    +0.000 N 
ATOM      5  C   UNL     1     -10.908  -4.512  15.608  0.00  0.00    +0.000 C 
ATOM      6  O   UNL     1     -11.837  -4.531  14.802  0.00  0.00    +0.000 OA
ATOM      7  C   UNL     1     -10.112  -0.871  16.333  0.00  0.00    +0.000 A 
ATOM      8  C   UNL     1     -10.589   0.112  15.503  0.00  0.00    +0.000 A 
ATOM      9  N   UNL     1     -10.149   1.410  15.558  0.00  0.00    +0.000 N 
ATOM     10  C   UNL     1      -9.173   1.773  16.531  0.00  0.00    +0.000 C 
ATOM     11  O   UNL     1      -8.605   2.837  16.356  0.00  0.00    +0.000 OA
ATOM     12  C   UNL     1      -9.047   0.916  17.764  0.00  0.00    +0.000 C 
ATOM     13  C   UNL     1      -9.205  -0.592  17.487  0.00  0.00    +0.000 C 
ATOM     14  H   UNL     1      -9.672  -3.504  16.935  0.00  0.00    +0.000 HD
ATOM     15  H   UNL     1     -10.385   2.090  14.845  0.00  0.00    +0.000 HD
ATOM     16  H   UNL     1      -9.815   1.292  18.453  0.00  0.00    +0.000 HD
ATOM     17  H   UNL     1      -8.077   1.110  18.233  0.00  0.00    +0.000 HD
ATOM     18  H   UNL     1      -8.213  -0.985  17.226  0.00  0.00    +0.000 HD
ENDROOT
BRANCH   5  19
ATOM     19  C   UNL     1     -10.370  -5.839  16.024  0.00  0.00    +0.000 A 
ATOM     20  C   UNL     1     -11.147  -6.629  16.879  0.00  0.00    +0.000 A 
ATOM     21  C   UNL     1     -10.759  -7.938  17.197  0.00  0.00    +0.000 A 
ATOM     22  C   UNL     1      -9.590  -8.509  16.660  0.00  0.00    +0.000 A 
ATOM     23  C   UNL     1      -8.820  -7.691  15.811  0.00  0.00    +0.000 A 
ATOM     24  C   UNL     1      -9.201  -6.373  15.491  0.00  0.00    +0.000 A 
ATOM     25  H   UNL     1     -12.084  -6.240  17.278  0.00  0.00    +0.000 HD
ATOM     26  H   UNL     1     -11.406  -8.513  17.858  0.00  0.00    +0.000 HD
ATOM     27  H   UNL     1      -7.927  -8.093  15.335  0.00  0.00    +0.000 HD
ATOM     28  H   UNL     1      -8.605  -5.825  14.765  0.00  0.00    +0.000 HD
BRANCH  22  29
ATOM     29  C   UNL     1      -9.214  -9.923  16.930  0.00  0.00    +0.000 A 
ATOM     30  C   UNL     1      -9.165 -10.885  15.904  0.00  0.00    +0.000 A 
ATOM     31  C   UNL     1      -8.766 -12.206  16.148  0.00  0.00    +0.000 A 
ATOM     32  C   UNL     1      -8.396 -12.597  17.430  0.00  0.00    +0.000 A 
ATOM     33  C   UNL     1      -8.440 -11.672  18.468  0.00  0.00    +0.000 A 
ATOM     34  C   UNL     1      -8.850 -10.356  18.220  0.00  0.00    +0.000 A 
ATOM     35  H   UNL     1      -9.417 -10.618  14.880  0.00  0.00    +0.000 HD
ATOM     36  H   UNL     1      -8.732 -12.920  15.335  0.00  0.00    +0.000 HD
ATOM     37  H   UNL     1      -8.075 -13.617  17.621  0.00  0.00    +0.000 HD
ATOM     38  H   UNL     1      -8.149 -11.969  19.472  0.00  0.00    +0.000 HD
ATOM     39  H   UNL     1      -8.882  -9.669  19.063  0.00  0.00    +0.000 HD
ENDBRANCH  22  29
ENDBRANCH   5  19
BRANCH  13  40
ATOM     40  C   UNL     1      -9.743  -1.290  18.717  0.00  0.00    +0.000 A 
ATOM     41  C   UNL     1      -9.172  -2.330  19.432  0.00  0.00    +0.000 A 
ATOM     42  C   UNL     1      -9.817  -2.542  20.682  0.00  0.00    +0.000 A 
ATOM     43  C   UNL     1     -10.899  -1.705  20.844  0.00  0.00    +0.000 A 
ATOM     44  S   UNL     1     -11.175  -0.727  19.470  0.00  0.00    +0.000 S 
ATOM     45  H   UNL     1      -8.274  -2.859  19.129  0.00  0.00    +0.000 HD
ATOM     46  H   UNL     1      -9.486  -3.243  21.436  0.00  0.00    +0.000 HD
ATOM     47  H   UNL     1     -11.549  -1.627  21.708  0.00  0.00    +0.000 HD
ENDBRANCH  13  40
BRANCH   1  48
ATOM     48  C   UNL     1     -12.350   0.158  13.711  0.00  0.00    +0.000 C 
ATOM     49  H   UNL     1     -12.212  -0.286  12.722  0.00  0.00    +0.000 HD
ATOM     50  H   UNL     1     -12.112   1.224  13.683  0.00  0.00    +0.000 HD
ATOM     51  H   UNL     1     -13.379   0.004  14.044  0.00  0.00    +0.000 HD
ENDBRANCH   1  48
TORSDOF 4
ENDMDL
MODEL 5
REMARK VINA RESULT:    -9.607      3.174      9.943
REMARK INTER + INTRA:         -12.591
REMARK INTER:                 -11.635
REMARK INTRA:                  -0.955
REMARK UNBOUND:                -1.018
REMARK  Name = 
REMARK  4 active torsions:
REMARK  status: ('A' for Active; 'I' for Inactive)
REMARK    1  A    between atoms: C_1  and  N_2
REMARK    2  A    between atoms: C_6  and  C_8
REMARK    3  A    between atoms: C_11  and  C_12
REMARK    4  A    between atoms: C_26  and  C_27
REMARK                            x       y       z     vdW  Elec       q    Type
REMARK                         _______ _______ _______ _____ _____    ______ ____
ROOT
ATOM      1  N   UNL     1     -10.307  -5.286  17.147  0.00  0.00    +0.000 N 
ATOM      2  N   UNL     1     -10.362  -4.102  17.754  0.00  0.00    +0.000 NA
ATOM      3  C   UNL     1      -9.676  -4.236  18.894  0.00  0.00    +0.000 A 
ATOM      4  N   UNL     1      -9.558  -3.221  19.837  0.00  0.00    +0.000 N 
ATOM      5  C   UNL     1     -10.081  -1.947  19.651  0.00  0.00    +0.000 C 
ATOM      6  O   UNL     1     -10.590  -1.504  18.622  0.00  0.00    +0.000 OA
ATOM      7  C   UNL     1      -9.145  -5.566  18.984  0.00  0.00    +0.000 A 
ATOM      8  C   UNL     1      -9.674  -6.220  17.901  0.00  0.00    +0.000 A 
ATOM      9  N   UNL     1      -9.578  -7.579  17.734  0.00  0.00    +0.000 N 
ATOM     10  C   UNL     1      -8.879  -8.351  18.706  0.00  0.00    +0.000 C 
ATOM     11  O   UNL     1      -9.068  -9.556  18.676  0.00  0.00    +0.000 OA
ATOM     12  C   UNL     1      -7.852  -7.656  19.562  0.00  0.00    +0.000 C 
ATOM     13  C   UNL     1      -8.266  -6.235  19.990  0.00  0.00    +0.000 C 
ATOM     14  H   UNL     1      -9.035  -3.417  20.676  0.00  0.00    +0.000 HD
ATOM     15  H   UNL     1     -10.103  -8.072  17.021  0.00  0.00    +0.000 HD
ATOM     16  H   UNL     1      -6.933  -7.655  18.960  0.00  0.00    +0.000 HD
ATOM     17  H   UNL     1      -7.652  -8.270  20.445  0.00  0.00    +0.000 HD
ATOM     18  H   UNL     1      -8.843  -6.326  20.921  0.00  0.00    +0.000 HD
ENDROOT
BRANCH   5  19
ATOM     19  C   UNL     1     -10.007  -1.007  20.806  0.00  0.00    +0.000 A 
ATOM     20  C   UNL     1      -9.136  -1.316  21.857  0.00  0.00    +0.000 A 
ATOM     21  C   UNL     1      -8.923  -0.408  22.904  0.00  0.00    +0.000 A 
ATOM     22  C   UNL     1      -9.562   0.846  22.930  0.00  0.00    +0.000 A 
ATOM     23  C   UNL     1     -10.441   1.130  21.867  0.00  0.00    +0.000 A 
ATOM     24  C   UNL     1     -10.664   0.221  20.814  0.00  0.00    +0.000 A 
ATOM     25  H   UNL     1      -8.586  -2.257  21.849  0.00  0.00    +0.000 HD
ATOM     26  H   UNL     1      -8.226  -0.694  23.690  0.00  0.00    +0.000 HD
ATOM     27  H   UNL     1     -10.932   2.101  21.815  0.00  0.00    +0.000 HD
ATOM     28  H   UNL     1     -11.292   0.535  19.984  0.00  0.00    +0.000 HD
BRANCH  22  29
ATOM     29  C   UNL     1      -9.280   1.845  23.995  0.00  0.00    +0.000 A 
ATOM     30  C   UNL     1      -7.998   1.987  24.558  0.00  0.00    +0.000 A 
ATOM     31  C   UNL     1      -7.719   2.959  25.528  0.00  0.00    +0.000 A 
ATOM     32  C   UNL     1      -8.720   3.824  25.955  0.00  0.00    +0.000 A 
ATOM     33  C   UNL     1     -10.001   3.706  25.424  0.00  0.00    +0.000 A 
ATOM     34  C   UNL     1     -10.276   2.725  24.463  0.00  0.00    +0.000 A 
ATOM     35  H   UNL     1      -7.176   1.352  24.233  0.00  0.00    +0.000 HD
ATOM     36  H   UNL     1      -6.719   3.046  25.936  0.00  0.00    +0.000 HD
ATOM     37  H   UNL     1      -8.506   4.586  26.700  0.00  0.00    +0.000 HD
ATOM     38  H   UNL     1     -10.787   4.380  25.752  0.00  0.00    +0.000 HD
ATOM     39  H   UNL     1     -11.293   2.660  24.084  0.00  0.00    +0.000 HD
ENDBRANCH  22  29
ENDBRANCH   5  19
BRANCH  13  40
ATOM     40  C   UNL     1      -7.035  -5.383  20.212  0.00  0.00    +0.000 A 
ATOM     41  C   UNL     1      -6.823  -4.419  21.184  0.00  0.00    +0.000 A 
ATOM     42  C   UNL     1      -5.458  -4.026  21.263  0.00  0.00    +0.000 A 
ATOM     43  C   UNL     1      -4.693  -4.649  20.303  0.00  0.00    +0.000 A 
ATOM     44  S   UNL     1      -5.626  -5.642  19.273  0.00  0.00    +0.000 S 
ATOM     45  H   UNL     1      -7.583  -4.074  21.878  0.00  0.00    +0.000 HD
ATOM     46  H   UNL     1      -5.053  -3.350  22.004  0.00  0.00    +0.000 HD
ATOM     47  H   UNL     1      -3.622  -4.562  20.154  0.00  0.00    +0.000 HD
ENDBRANCH  13  40
BRANCH   1  48
ATOM     48  C   UNL     1     -10.880  -5.452  15.835  0.00  0.00    +0.000 C 
ATOM     49  H   UNL     1     -11.649  -6.228  15.863  0.00  0.00    +0.000 HD
ATOM     50  H   UNL     1     -10.084  -5.734  15.144  0.00  0.00    +0.000 HD
ATOM     51  H   UNL     1     -11.327  -4.500  15.536  0.00  0.00    +0.000 HD
ENDBRANCH   1  48
TORSDOF 4
ENDMDL
MODEL 6
REMARK VINA RESULT:    -8.971      4.280      5.895
REMARK INTER + INTRA:         -11.824
REMARK INTER:                 -10.913
REMARK INTRA:                  -0.911
REMARK UNBOUND:                -1.018
REMARK  Name = 
REMARK  4 active torsions:
REMARK  status: ('A' for Active; 'I' for Inactive)
REMARK    1  A    between atoms: C_1  and  N_2
REMARK    2  A    between atoms: C_6  and  C_8
REMARK    3  A    between atoms: C_11  and  C_12
REMARK    4  A    between atoms: C_26  and  C_27
REMARK                            x       y       z     vdW  Elec       q    Type
REMARK                         _______ _______ _______ _____ _____    ______ ____
ROOT
ATOM      1  N   UNL     1     -13.629   0.195  16.044  0.00  0.00    +0.000 N 
ATOM      2  N   UNL     1     -12.979  -0.825  16.602  0.00  0.00    +0.000 NA
ATOM      3  C   UNL     1     -12.528  -1.576  15.591  0.00  0.00    +0.000 A 
ATOM      4  N   UNL     1     -11.846  -2.773  15.776  0.00  0.00    +0.000 N 
ATOM      5  C   UNL     1     -11.505  -3.267  17.029  0.00  0.00    +0.000 C 
ATOM      6  O   UNL     1     -11.631  -2.689  18.108  0.00  0.00    +0.000 OA
ATOM      7  C   UNL     1     -12.895  -0.974  14.342  0.00  0.00    +0.000 A 
ATOM      8  C   UNL     1     -13.690   0.087  14.693  0.00  0.00    +0.000 A 
ATOM      9  N   UNL     1     -14.418   0.805  13.778  0.00  0.00    +0.000 N 
ATOM     10  C   UNL     1     -14.335   0.460  12.398  0.00  0.00    +0.000 C 
ATOM     11  O   UNL     1     -15.202   0.917  11.674  0.00  0.00    +0.000 OA
ATOM     12  C   UNL     1     -13.111  -0.280  11.924  0.00  0.00    +0.000 C 
ATOM     13  C   UNL     1     -12.605  -1.340  12.923  0.00  0.00    +0.000 C 
ATOM     14  H   UNL     1     -11.558  -3.282  14.955  0.00  0.00    +0.000 HD
ATOM     15  H   UNL     1     -15.120   1.480  14.059  0.00  0.00    +0.000 HD
ATOM     16  H   UNL     1     -12.361   0.500  11.734  0.00  0.00    +0.000 HD
ATOM     17  H   UNL     1     -13.332  -0.750  10.960  0.00  0.00    +0.000 HD
ATOM     18  H   UNL     1     -13.139  -2.275  12.710  0.00  0.00    +0.000 HD
ENDROOT
BRANCH   5  19
ATOM     19  C   UNL     1     -10.907  -4.632  17.082  0.00  0.00    +0.000 A 
ATOM     20  C   UNL     1     -10.208  -5.005  18.237  0.00  0.00    +0.000 A 
ATOM     21  C   UNL     1      -9.740  -6.316  18.402  0.00  0.00    +0.000 A 
ATOM     22  C   UNL     1      -9.966  -7.304  17.426  0.00  0.00    +0.000 A 
ATOM     23  C   UNL     1     -10.662  -6.903  16.269  0.00  0.00    +0.000 A 
ATOM     24  C   UNL     1     -11.131  -5.586  16.094  0.00  0.00    +0.000 A 
ATOM     25  H   UNL     1     -10.053  -4.280  19.037  0.00  0.00    +0.000 HD
ATOM     26  H   UNL     1      -9.213  -6.555  19.324  0.00  0.00    +0.000 HD
ATOM     27  H   UNL     1     -10.900  -7.636  15.499  0.00  0.00    +0.000 HD
ATOM     28  H   UNL     1     -11.732  -5.364  15.216  0.00  0.00    +0.000 HD
BRANCH  22  29
ATOM     29  C   UNL     1      -9.542  -8.716  17.629  0.00  0.00    +0.000 A 
ATOM     30  C   UNL     1      -8.870  -9.126  18.796  0.00  0.00    +0.000 A 
ATOM     31  C   UNL     1      -8.511 -10.464  19.011  0.00  0.00    +0.000 A 
ATOM     32  C   UNL     1      -8.824 -11.430  18.061  0.00  0.00    +0.000 A 
ATOM     33  C   UNL     1      -9.482 -11.056  16.894  0.00  0.00    +0.000 A 
ATOM     34  C   UNL     1      -9.828  -9.716  16.680  0.00  0.00    +0.000 A 
ATOM     35  H   UNL     1      -8.630  -8.411  19.580  0.00  0.00    +0.000 HD
ATOM     36  H   UNL     1      -8.001 -10.748  19.923  0.00  0.00    +0.000 HD
ATOM     37  H   UNL     1      -8.558 -12.470  18.228  0.00  0.00    +0.000 HD
ATOM     38  H   UNL     1      -9.732 -11.806  16.149  0.00  0.00    +0.000 HD
ATOM     39  H   UNL     1     -10.329  -9.466  15.747  0.00  0.00    +0.000 HD
ENDBRANCH  22  29
ENDBRANCH   5  19
BRANCH  13  40
ATOM     40  C   UNL     1     -11.113  -1.533  12.759  0.00  0.00    +0.000 A 
ATOM     41  C   UNL     1     -10.123  -0.566  12.715  0.00  0.00    +0.000 A 
ATOM     42  C   UNL     1      -8.820  -1.125  12.832  0.00  0.00    +0.000 A 
ATOM     43  C   UNL     1      -8.859  -2.500  12.888  0.00  0.00    +0.000 A 
ATOM     44  S   UNL     1     -10.447  -3.110  12.728  0.00  0.00    +0.000 S 
ATOM     45  H   UNL     1     -10.313   0.502  12.697  0.00  0.00    +0.000 HD
ATOM     46  H   UNL     1      -7.907  -0.550  12.906  0.00  0.00    +0.000 HD
ATOM     47  H   UNL     1      -8.023  -3.180  13.010  0.00  0.00    +0.000 HD
ENDBRANCH  13  40
BRANCH   1  48
ATOM     48  C   UNL     1     -14.164   1.248  16.871  0.00  0.00    +0.000 C 
ATOM     49  H   UNL     1     -14.282   2.158  16.278  0.00  0.00    +0.000 HD
ATOM     50  H   UNL     1     -13.472   1.423  17.698  0.00  0.00    +0.000 HD
ATOM     51  H   UNL     1     -15.137   0.924  17.248  0.00  0.00    +0.000 HD
ENDBRANCH   1  48
TORSDOF 4
ENDMDL
MODEL 7
REMARK VINA RESULT:    -8.578      2.646      4.585
REMARK INTER + INTRA:         -11.351
REMARK INTER:                 -11.006
REMARK INTRA:                  -0.344
REMARK UNBOUND:                -1.018
REMARK  Name = 
REMARK  4 active torsions:
REMARK  status: ('A' for Active; 'I' for Inactive)
REMARK    1  A    between atoms: C_1  and  N_2
REMARK    2  A    between atoms: C_6  and  C_8
REMARK    3  A    between atoms: C_11  and  C_12
REMARK    4  A    between atoms: C_26  and  C_27
REMARK                            x       y       z     vdW  Elec       q    Type
REMARK                         _______ _______ _______ _____ _____    ______ ____
ROOT
ATOM      1  N   UNL     1     -11.128   1.443  20.065  0.00  0.00    +0.000 N 
ATOM      2  N   UNL     1     -11.148   0.238  19.498  0.00  0.00    +0.000 NA
ATOM      3  C   UNL     1     -10.520  -0.583  20.347  0.00  0.00    +0.000 A 
ATOM      4  N   UNL     1     -10.285  -1.926  20.077  0.00  0.00    +0.000 N 
ATOM      5  C   UNL     1     -10.744  -2.561  18.929  0.00  0.00    +0.000 C 
ATOM      6  O   UNL     1     -11.501  -2.090  18.080  0.00  0.00    +0.000 OA
ATOM      7  C   UNL     1     -10.116   0.148  21.514  0.00  0.00    +0.000 A 
ATOM      8  C   UNL     1     -10.428   1.452  21.227  0.00  0.00    +0.000 A 
ATOM      9  N   UNL     1     -10.011   2.504  22.003  0.00  0.00    +0.000 N 
ATOM     10  C   UNL     1      -9.241   2.243  23.174  0.00  0.00    +0.000 C 
ATOM     11  O   UNL     1      -8.654   3.195  23.658  0.00  0.00    +0.000 OA
ATOM     12  C   UNL     1      -9.351   0.880  23.806  0.00  0.00    +0.000 C 
ATOM     13  C   UNL     1      -9.448  -0.269  22.783  0.00  0.00    +0.000 C 
ATOM     14  H   UNL     1      -9.789  -2.465  20.768  0.00  0.00    +0.000 HD
ATOM     15  H   UNL     1     -10.108   3.467  21.703  0.00  0.00    +0.000 HD
ATOM     16  H   UNL     1     -10.239   0.935  24.450  0.00  0.00    +0.000 HD
ATOM     17  H   UNL     1      -8.491   0.724  24.464  0.00  0.00    +0.000 HD
ATOM     18  H   UNL     1      -8.423  -0.573  22.531  0.00  0.00    +0.000 HD
ENDROOT
BRANCH   5  19
ATOM     19  C   UNL     1     -10.292  -3.963  18.700  0.00  0.00    +0.000 A 
ATOM     20  C   UNL     1      -9.090  -4.375  19.288  0.00  0.00    +0.000 A 
ATOM     21  C   UNL     1      -8.680  -5.714  19.222  0.00  0.00    +0.000 A 
ATOM     22  C   UNL     1      -9.463  -6.691  18.579  0.00  0.00    +0.000 A 
ATOM     23  C   UNL     1     -10.662  -6.250  17.987  0.00  0.00    +0.000 A 
ATOM     24  C   UNL     1     -11.078  -4.906  18.044  0.00  0.00    +0.000 A 
ATOM     25  H   UNL     1      -8.478  -3.658  19.835  0.00  0.00    +0.000 HD
ATOM     26  H   UNL     1      -7.742  -5.982  19.706  0.00  0.00    +0.000 HD
ATOM     27  H   UNL     1     -11.327  -6.970  17.511  0.00  0.00    +0.000 HD
ATOM     28  H   UNL     1     -12.053  -4.648  17.638  0.00  0.00    +0.000 HD
BRANCH  22  29
ATOM     29  C   UNL     1      -9.073  -8.127  18.574  0.00  0.00    +0.000 A 
ATOM     30  C   UNL     1      -8.613  -8.774  19.735  0.00  0.00    +0.000 A 
ATOM     31  C   UNL     1      -8.290 -10.137  19.744  0.00  0.00    +0.000 A 
ATOM     32  C   UNL     1      -8.428 -10.893  18.585  0.00  0.00    +0.000 A 
ATOM     33  C   UNL     1      -8.874 -10.282  17.418  0.00  0.00    +0.000 A 
ATOM     34  C   UNL     1      -9.185  -8.916  17.413  0.00  0.00    +0.000 A 
ATOM     35  H   UNL     1      -8.517  -8.229  20.673  0.00  0.00    +0.000 HD
ATOM     36  H   UNL     1      -7.945 -10.606  20.657  0.00  0.00    +0.000 HD
ATOM     37  H   UNL     1      -8.189 -11.953  18.590  0.00  0.00    +0.000 HD
ATOM     38  H   UNL     1      -8.987 -10.867  16.509  0.00  0.00    +0.000 HD
ATOM     39  H   UNL     1      -9.517  -8.477  16.475  0.00  0.00    +0.000 HD
ENDBRANCH  22  29
ENDBRANCH   5  19
BRANCH  13  40
ATOM     40  C   UNL     1     -10.210  -1.431  23.383  0.00  0.00    +0.000 A 
ATOM     41  C   UNL     1      -9.779  -2.339  24.336  0.00  0.00    +0.000 A 
ATOM     42  C   UNL     1     -10.848  -3.116  24.861  0.00  0.00    +0.000 A 
ATOM     43  C   UNL     1     -12.042  -2.824  24.240  0.00  0.00    +0.000 A 
ATOM     44  S   UNL     1     -11.858  -1.677  22.987  0.00  0.00    +0.000 S 
ATOM     45  H   UNL     1      -8.765  -2.388  24.718  0.00  0.00    +0.000 HD
ATOM     46  H   UNL     1     -10.755  -3.824  25.674  0.00  0.00    +0.000 HD
ATOM     47  H   UNL     1     -13.020  -3.239  24.461  0.00  0.00    +0.000 HD
ENDBRANCH  13  40
BRANCH   1  48
ATOM     48  C   UNL     1     -11.811   2.547  19.438  0.00  0.00    +0.000 C 
ATOM     49  H   UNL     1     -11.178   3.437  19.466  0.00  0.00    +0.000 HD
ATOM     50  H   UNL     1     -12.743   2.728  19.978  0.00  0.00    +0.000 HD
ATOM     51  H   UNL     1     -12.017   2.274  18.399  0.00  0.00    +0.000 HD
ENDBRANCH   1  48
TORSDOF 4
ENDMDL
MODEL 8
REMARK VINA RESULT:    -8.574      3.472      7.179
REMARK INTER + INTRA:         -11.347
REMARK INTER:                 -10.281
REMARK INTRA:                  -1.066
REMARK UNBOUND:                -1.018
REMARK  Name = 
REMARK  4 active torsions:
REMARK  status: ('A' for Active; 'I' for Inactive)
REMARK    1  A    between atoms: C_1  and  N_2
REMARK    2  A    between atoms: C_6  and  C_8
REMARK    3  A    between atoms: C_11  and  C_12
REMARK    4  A    between atoms: C_26  and  C_27
REMARK                            x       y       z     vdW  Elec       q    Type
REMARK                         _______ _______ _______ _____ _____    ______ ____
ROOT
ATOM      1  N   UNL     1      -9.123  -2.736  21.007  0.00  0.00    +0.000 N 
ATOM      2  N   UNL     1      -9.915  -2.628  19.942  0.00  0.00    +0.000 NA
ATOM      3  C   UNL     1      -9.396  -3.434  19.009  0.00  0.00    +0.000 A 
ATOM      4  N   UNL     1      -9.915  -3.548  17.725  0.00  0.00    +0.000 N 
ATOM      5  C   UNL     1     -11.067  -2.890  17.310  0.00  0.00    +0.000 C 
ATOM      6  O   UNL     1     -11.838  -2.241  18.016  0.00  0.00    +0.000 OA
ATOM      7  C   UNL     1      -8.237  -4.096  19.535  0.00  0.00    +0.000 A 
ATOM      8  C   UNL     1      -8.047  -3.527  20.768  0.00  0.00    +0.000 A 
ATOM      9  N   UNL     1      -6.916  -3.735  21.517  0.00  0.00    +0.000 N 
ATOM     10  C   UNL     1      -5.899  -4.598  21.015  0.00  0.00    +0.000 C 
ATOM     11  O   UNL     1      -4.810  -4.523  21.559  0.00  0.00    +0.000 OA
ATOM     12  C   UNL     1      -6.287  -5.634  19.992  0.00  0.00    +0.000 C 
ATOM     13  C   UNL     1      -7.322  -5.130  18.966  0.00  0.00    +0.000 C 
ATOM     14  H   UNL     1      -9.448  -4.168  17.082  0.00  0.00    +0.000 HD
ATOM     15  H   UNL     1      -6.712  -3.192  22.348  0.00  0.00    +0.000 HD
ATOM     16  H   UNL     1      -6.664  -6.484  20.576  0.00  0.00    +0.000 HD
ATOM     17  H   UNL     1      -5.385  -5.978  19.476  0.00  0.00    +0.000 HD
ATOM     18  H   UNL     1      -6.767  -4.661  18.142  0.00  0.00    +0.000 HD
ENDROOT
BRANCH   5  19
ATOM     19  C   UNL     1     -11.423  -2.987  15.866  0.00  0.00    +0.000 A 
ATOM     20  C   UNL     1     -11.903  -1.840  15.223  0.00  0.00    +0.000 A 
ATOM     21  C   UNL     1     -12.128  -1.832  13.839  0.00  0.00    +0.000 A 
ATOM     22  C   UNL     1     -11.866  -2.966  13.047  0.00  0.00    +0.000 A 
ATOM     23  C   UNL     1     -11.393  -4.110  13.717  0.00  0.00    +0.000 A 
ATOM     24  C   UNL     1     -11.170  -4.127  15.108  0.00  0.00    +0.000 A 
ATOM     25  H   UNL     1     -12.074  -0.927  15.795  0.00  0.00    +0.000 HD
ATOM     26  H   UNL     1     -12.491  -0.910  13.389  0.00  0.00    +0.000 HD
ATOM     27  H   UNL     1     -11.136  -5.003  13.148  0.00  0.00    +0.000 HD
ATOM     28  H   UNL     1     -10.727  -5.016  15.549  0.00  0.00    +0.000 HD
BRANCH  22  29
ATOM     29  C   UNL     1     -12.027  -2.940  11.568  0.00  0.00    +0.000 A 
ATOM     30  C   UNL     1     -12.350  -1.756  10.879  0.00  0.00    +0.000 A 
ATOM     31  C   UNL     1     -12.456  -1.719   9.482  0.00  0.00    +0.000 A 
ATOM     32  C   UNL     1     -12.230  -2.870   8.736  0.00  0.00    +0.000 A 
ATOM     33  C   UNL     1     -11.915  -4.059   9.387  0.00  0.00    +0.000 A 
ATOM     34  C   UNL     1     -11.822  -4.092  10.784  0.00  0.00    +0.000 A 
ATOM     35  H   UNL     1     -12.506  -0.824  11.418  0.00  0.00    +0.000 HD
ATOM     36  H   UNL     1     -12.700  -0.790   8.981  0.00  0.00    +0.000 HD
ATOM     37  H   UNL     1     -12.301  -2.844   7.651  0.00  0.00    +0.000 HD
ATOM     38  H   UNL     1     -11.735  -4.961   8.810  0.00  0.00    +0.000 HD
ATOM     39  H   UNL     1     -11.586  -5.045  11.252  0.00  0.00    +0.000 HD
ENDBRANCH  22  29
ENDBRANCH   5  19
BRANCH  13  40
ATOM     40  C   UNL     1      -8.147  -6.291  18.454  0.00  0.00    +0.000 A 
ATOM     41  C   UNL     1      -8.337  -6.695  17.142  0.00  0.00    +0.000 A 
ATOM     42  C   UNL     1      -8.940  -7.980  17.057  0.00  0.00    +0.000 A 
ATOM     43  C   UNL     1      -9.253  -8.478  18.302  0.00  0.00    +0.000 A 
ATOM     44  S   UNL     1      -8.889  -7.374  19.553  0.00  0.00    +0.000 S 
ATOM     45  H   UNL     1      -7.978  -6.148  16.277  0.00  0.00    +0.000 HD
ATOM     46  H   UNL     1      -9.104  -8.525  16.137  0.00  0.00    +0.000 HD
ATOM     47  H   UNL     1      -9.688  -9.444  18.537  0.00  0.00    +0.000 HD
ENDBRANCH  13  40
BRANCH   1  48
ATOM     48  C   UNL     1      -9.463  -2.053  22.231  0.00  0.00    +0.000 C 
ATOM     49  H   UNL     1      -8.594  -1.503  22.600  0.00  0.00    +0.000 HD
ATOM     50  H   UNL     1      -9.779  -2.798  22.965  0.00  0.00    +0.000 HD
ATOM     51  H   UNL     1     -10.277  -1.356  22.017  0.00  0.00    +0.000 HD
ENDBRANCH   1  48
TORSDOF 4
ENDMDL
MODEL 9
REMARK VINA RESULT:    -8.542      2.967      4.623
REMARK INTER + INTRA:         -11.307
REMARK INTER:                 -10.213
REMARK INTRA:                  -1.094
REMARK UNBOUND:                -1.018
REMARK  Name = 
REMARK  4 active torsions:
REMARK  status: ('A' for Active; 'I' for Inactive)
REMARK    1  A    between atoms: C_1  and  N_2
REMARK    2  A    between atoms: C_6  and  C_8
REMARK    3  A    between atoms: C_11  and  C_12
REMARK    4  A    between atoms: C_26  and  C_27
REMARK                            x       y       z     vdW  Elec       q    Type
REMARK                         _______ _______ _______ _____ _____    ______ ____
ROOT
ATOM      1  N   UNL     1     -12.487   1.060  17.286  0.00  0.00    +0.000 N 
ATOM      2  N   UNL     1     -12.416  -0.250  17.056  0.00  0.00    +0.000 NA
ATOM      3  C   UNL     1     -11.517  -0.731  17.922  0.00  0.00    +0.000 A 
ATOM      4  N   UNL     1     -11.122  -2.063  17.949  0.00  0.00    +0.000 N 
ATOM      5  C   UNL     1     -11.677  -3.037  17.127  0.00  0.00    +0.000 C 
ATOM      6  O   UNL     1     -12.644  -2.904  16.378  0.00  0.00    +0.000 OA
ATOM      7  C   UNL     1     -11.027   0.333  18.750  0.00  0.00    +0.000 A 
ATOM      8  C   UNL     1     -11.594   1.466  18.224  0.00  0.00    +0.000 A 
ATOM      9  N   UNL     1     -11.216   2.730  18.601  0.00  0.00    +0.000 N 
ATOM     10  C   UNL     1     -10.210   2.887  19.598  0.00  0.00    +0.000 C 
ATOM     11  O   UNL     1      -9.706   3.993  19.687  0.00  0.00    +0.000 OA
ATOM     12  C   UNL     1      -9.979   1.749  20.559  0.00  0.00    +0.000 C 
ATOM     13  C   UNL     1     -10.076   0.358  19.902  0.00  0.00    +0.000 C 
ATOM     14  H   UNL     1     -10.426  -2.334  18.625  0.00  0.00    +0.000 HD
ATOM     15  H   UNL     1     -11.522   3.556  18.099  0.00  0.00    +0.000 HD
ATOM     16  H   UNL     1     -10.729   1.887  21.349  0.00  0.00    +0.000 HD
ATOM     17  H   UNL     1      -8.997   1.874  21.026  0.00  0.00    +0.000 HD
ATOM     18  H   UNL     1      -9.081   0.107  19.512  0.00  0.00    +0.000 HD
ENDROOT
BRANCH   5  19
ATOM     19  C   UNL     1     -11.054  -4.391  17.161  0.00  0.00    +0.000 A 
ATOM     20  C   UNL     1     -10.469  -4.821  18.358  0.00  0.00    +0.000 A 
ATOM     21  C   UNL     1      -9.987  -6.131  18.491  0.00  0.00    +0.000 A 
ATOM     22  C   UNL     1     -10.087  -7.061  17.440  0.00  0.00    +0.000 A 
ATOM     23  C   UNL     1     -10.671  -6.602  16.243  0.00  0.00    +0.000 A 
ATOM     24  C   UNL     1     -11.152  -5.286  16.099  0.00  0.00    +0.000 A 
ATOM     25  H   UNL     1     -10.415  -4.145  19.211  0.00  0.00    +0.000 HD
ATOM     26  H   UNL     1      -9.552  -6.417  19.448  0.00  0.00    +0.000 HD
ATOM     27  H   UNL     1     -10.810  -7.290  15.410  0.00  0.00    +0.000 HD
ATOM     28  H   UNL     1     -11.664  -5.021  15.178  0.00  0.00    +0.000 HD
BRANCH  22  29
ATOM     29  C   UNL     1      -9.651  -8.475  17.602  0.00  0.00    +0.000 A 
ATOM     30  C   UNL     1      -8.954  -8.908  18.745  0.00  0.00    +0.000 A 
ATOM     31  C   UNL     1      -8.583 -10.248  18.921  0.00  0.00    +0.000 A 
ATOM     32  C   UNL     1      -8.910 -11.194  17.956  0.00  0.00    +0.000 A 
ATOM     33  C   UNL     1      -9.593 -10.797  16.811  0.00  0.00    +0.000 A 
ATOM     34  C   UNL     1      -9.951  -9.454  16.635  0.00  0.00    +0.000 A 
ATOM     35  H   UNL     1      -8.702  -8.209  19.540  0.00  0.00    +0.000 HD
ATOM     36  H   UNL     1      -8.053 -10.550  19.816  0.00  0.00    +0.000 HD
ATOM     37  H   UNL     1      -8.634 -12.236  18.093  0.00  0.00    +0.000 HD
ATOM     38  H   UNL     1      -9.854 -11.531  16.054  0.00  0.00    +0.000 HD
ATOM     39  H   UNL     1     -10.472  -9.186  15.719  0.00  0.00    +0.000 HD
ENDBRANCH  22  29
ENDBRANCH   5  19
BRANCH  13  40
ATOM     40  C   UNL     1     -10.516  -0.666  20.926  0.00  0.00    +0.000 A 
ATOM     41  C   UNL     1      -9.806  -1.753  21.411  0.00  0.00    +0.000 A 
ATOM     42  C   UNL     1     -10.420  -2.327  22.558  0.00  0.00    +0.000 A 
ATOM     43  C   UNL     1     -11.610  -1.706  22.863  0.00  0.00    +0.000 A 
ATOM     44  S   UNL     1     -12.016  -0.490  21.733  0.00  0.00    +0.000 S 
ATOM     45  H   UNL     1      -8.841  -2.071  21.030  0.00  0.00    +0.000 HD
ATOM     46  H   UNL     1      -9.996  -3.128  23.149  0.00  0.00    +0.000 HD
ATOM     47  H   UNL     1     -12.269  -1.914  23.699  0.00  0.00    +0.000 HD
ENDBRANCH  13  40
BRANCH   1  48
ATOM     48  C   UNL     1     -13.444   1.868  16.571  0.00  0.00    +0.000 C 
ATOM     49  H   UNL     1     -13.982   2.510  17.273  0.00  0.00    +0.000 HD
ATOM     50  H   UNL     1     -14.140   1.203  16.056  0.00  0.00    +0.000 HD
ATOM     51  H   UNL     1     -12.899   2.484  15.851  0.00  0.00    +0.000 HD
ENDBRANCH   1  48
TORSDOF 4
ENDMDL
