
 OpenBabel01112423113D

 48 52  0  0  1  0  0  0  0  0999 V2000
    5.0818   -3.5777    2.4786 N   0  0  0  0  0  0  0  0  0  0  0  0
    4.3039   -2.5347    2.8931 C   0  0  0  0  0  0  0  0  0  0  0  0
    3.8152   -2.5917    4.0192 O   0  0  0  0  0  0  0  0  0  0  0  0
    4.1411   -1.3343    1.9210 C   0  0  1  0  0  0  0  0  0  0  0  0
    4.2318   -1.6370    0.4315 C   0  0  0  0  0  0  0  0  0  0  0  0
    2.8356   -2.1283    0.1348 C   0  0  0  0  0  0  0  0  0  0  0  0
    1.9760   -1.1314    0.9261 C   0  0  0  0  0  0  0  0  0  0  0  0
    2.8175   -0.7697    2.0812 N   0  0  0  0  0  0  0  0  0  0  0  0
    2.6136    0.4122    2.7708 C   0  0  0  0  0  0  0  0  0  0  0  0
    1.4669    1.0601    2.3845 N   0  0  0  0  0  0  0  0  0  0  0  0
    1.0520    2.1965    2.9522 C   0  0  0  0  0  0  0  0  0  0  0  0
   -0.1779    2.8565    2.4123 C   0  0  0  0  0  0  0  0  0  0  0  0
   -0.6993    4.0251    2.9824 C   0  0  0  0  0  0  0  0  0  0  0  0
   -1.8410    4.6220    2.4417 C   0  0  0  0  0  0  0  0  0  0  0  0
   -2.4493    4.0410    1.3417 C   0  0  0  0  0  0  0  0  0  0  0  0
   -1.8878    2.8880    0.8205 C   0  0  0  0  0  0  0  0  0  0  0  0
   -0.7809    2.2935    1.3234 N   0  0  0  0  0  0  0  0  0  0  0  0
    1.6653    2.7889    3.9564 N   0  0  0  0  0  0  0  0  0  0  0  0
    2.7961    2.1767    4.3462 C   0  0  0  0  0  0  0  0  0  0  0  0
    3.5953    2.8762    5.6785 S   0  0  0  0  0  0  0  0  0  0  0  0
    4.8422    1.7473    5.5931 C   0  0  0  0  0  0  0  0  0  0  0  0
    4.7039    0.8295    4.5668 C   0  0  0  0  0  0  0  0  0  0  0  0
    5.8266   -0.1366    4.4679 C   0  0  0  0  0  0  0  0  0  0  0  0
    6.1811   -0.9293    5.5745 C   0  0  0  0  0  0  0  0  0  0  0  0
    7.1696   -1.9146    5.4730 C   0  0  0  0  0  0  0  0  0  0  0  0
    7.7861   -2.1581    4.2510 C   0  0  0  0  0  0  0  0  0  0  0  0
    7.5317   -1.3083    3.1793 C   0  0  0  0  0  0  0  0  0  0  0  0
    6.6358   -0.2404    3.3276 C   0  0  0  0  0  0  0  0  0  0  0  0
    3.4021    1.0315    3.8245 C   0  0  0  0  0  0  0  0  0  0  0  0
    5.2744   -4.2703    3.1937 H   0  0  0  0  0  0  0  0  0  0  0  0
    5.6984   -3.5317    1.6864 H   0  0  0  0  0  0  0  0  0  0  0  0
    4.8603   -0.5662    2.0865 H   0  0  0  0  0  0  0  0  0  0  0  0
    5.0242   -2.3317    0.1524 H   0  0  0  0  0  0  0  0  0  0  0  0
    4.4153   -0.7015   -0.1185 H   0  0  0  0  0  0  0  0  0  0  0  0
    2.7111   -3.1454    0.5220 H   0  0  0  0  0  0  0  0  0  0  0  0
    2.6121   -2.1343   -0.9348 H   0  0  0  0  0  0  0  0  0  0  0  0
    1.0323   -1.5922    1.2360 H   0  0  0  0  0  0  0  0  0  0  0  0
    1.7699   -0.2649    0.2858 H   0  0  0  0  0  0  0  0  0  0  0  0
   -0.2188    4.4812    3.8504 H   0  0  0  0  0  0  0  0  0  0  0  0
   -2.2484    5.5233    2.8811 H   0  0  0  0  0  0  0  0  0  0  0  0
   -3.3385    4.4716    0.8954 H   0  0  0  0  0  0  0  0  0  0  0  0
   -2.3231    2.3915   -0.0403 H   0  0  0  0  0  0  0  0  0  0  0  0
    5.6446    1.8168    6.3129 H   0  0  0  0  0  0  0  0  0  0  0  0
    5.6769   -0.7985    6.5300 H   0  0  0  0  0  0  0  0  0  0  0  0
    7.4244   -2.5157    6.3416 H   0  0  0  0  0  0  0  0  0  0  0  0
    8.4716   -2.9952    4.1424 H   0  0  0  0  0  0  0  0  0  0  0  0
    8.0056   -1.4942    2.2183 H   0  0  0  0  0  0  0  0  0  0  0  0
    6.5078    0.4487    2.4950 H   0  0  0  0  0  0  0  0  0  0  0  0
  1  2  1  0  0  0  0
  1 30  1  0  0  0  0
  1 31  1  0  0  0  0
  2  3  2  0  0  0  0
  4  5  1  0  0  0  0
  4  8  1  0  0  0  0
  4  2  1  0  0  0  0
  4 32  1  1  0  0  0
  5  6  1  0  0  0  0
  5 33  1  0  0  0  0
  5 34  1  0  0  0  0
  6  7  1  0  0  0  0
  6 35  1  0  0  0  0
  6 36  1  0  0  0  0
  7  8  1  0  0  0  0
  7 37  1  0  0  0  0
  7 38  1  0  0  0  0
  8  9  1  0  0  0  0
  9 10  1  0  0  0  0
  9 29  2  0  0  0  0
 10 11  2  0  0  0  0
 11 12  1  0  0  0  0
 11 18  1  0  0  0  0
 12 13  1  0  0  0  0
 12 17  2  0  0  0  0
 13 14  2  0  0  0  0
 13 39  1  0  0  0  0
 14 15  1  0  0  0  0
 14 40  1  0  0  0  0
 15 16  2  0  0  0  0
 15 41  1  0  0  0  0
 16 17  1  0  0  0  0
 16 42  1  0  0  0  0
 18 19  2  0  0  0  0
 19 20  1  0  0  0  0
 19 29  1  0  0  0  0
 20 21  1  0  0  0  0
 21 22  2  0  0  0  0
 21 43  1  0  0  0  0
 22 23  1  0  0  0  0
 22 29  1  0  0  0  0
 23 24  1  0  0  0  0
 23 28  2  0  0  0  0
 24 25  2  0  0  0  0
 24 44  1  0  0  0  0
 25 26  1  0  0  0  0
 25 45  1  0  0  0  0
 26 27  2  0  0  0  0
 26 46  1  0  0  0  0
 27 28  1  0  0  0  0
 27 47  1  0  0  0  0
 28 48  1  0  0  0  0
M  END
$$$$
