
 OpenBabel01112423123D

 54 57  0  0  1  0  0  0  0  0999 V2000
    0.7799   -9.6329   -2.4221 C   0  0  0  0  0  0  0  0  0  0  0  0
    2.4697   -9.2939   -1.8722 S   0  0  0  0  0  0  0  0  0  0  0  0
    2.7868   -7.6749   -2.5535 C   0  0  0  0  0  0  0  0  0  0  0  0
    3.6894   -6.8589   -1.8711 C   0  0  0  0  0  0  0  0  0  0  0  0
    4.1105   -5.6453   -2.4204 C   0  0  0  0  0  0  0  0  0  0  0  0
    3.6702   -5.2214   -3.6893 C   0  0  0  0  0  0  0  0  0  0  0  0
    4.3895   -4.0319   -4.3257 C   0  0  1  0  0  0  0  0  0  0  0  0
    5.8991   -4.3453   -4.5264 C   0  0  1  0  0  0  0  0  0  0  0  0
    6.2749   -5.5611   -5.4059 C   0  0  0  0  0  0  0  0  0  0  0  0
    7.4430   -5.9520   -5.3410 O   0  0  0  0  0  0  0  0  0  0  0  0
    5.3137   -6.1207   -6.2305 N   0  0  0  0  0  0  0  0  0  0  0  0
    5.4396   -7.2773   -7.0534 C   0  0  0  0  0  0  0  0  0  0  0  0
    6.5872   -8.0774   -7.0379 C   0  0  0  0  0  0  0  0  0  0  0  0
    6.7076   -9.2005   -7.8624 C   0  0  0  0  0  0  0  0  0  0  0  0
    5.6725   -9.5675   -8.7161 C   0  0  0  0  0  0  0  0  0  0  0  0
    5.8028  -10.7554   -9.6205 C   0  0  0  0  0  0  0  0  0  0  0  0
    4.5026   -8.8040   -8.7140 C   0  0  0  0  0  0  0  0  0  0  0  0
    4.3754   -7.6521   -7.9079 C   0  0  0  0  0  0  0  0  0  0  0  0
    3.0801   -6.8908   -8.0078 C   0  0  0  0  0  0  0  0  0  0  0  0
    6.5672   -3.0484   -5.0316 C   0  0  1  0  0  0  0  0  0  0  0  0
    8.0894   -3.0517   -5.0687 C   0  0  0  0  0  0  0  0  0  0  0  0
    5.9928   -2.6896   -6.3143 N   0  0  0  0  0  0  0  0  0  0  0  0
    4.6691   -2.8163   -6.5055 C   0  0  0  0  0  0  0  0  0  0  0  0
    3.9485   -2.5030   -7.5435 N   0  0  0  0  0  0  0  0  0  0  0  0
    2.6865   -2.8581   -7.1696 C   0  0  0  0  0  0  0  0  0  0  0  0
    2.5815   -3.4390   -5.9671 N   0  0  0  0  0  0  0  0  0  0  0  0
    3.8660   -3.4365   -5.5687 N   0  0  0  0  0  0  0  0  0  0  0  0
    2.6886   -5.9965   -4.3137 C   0  0  0  0  0  0  0  0  0  0  0  0
    2.2652   -7.2143   -3.7618 C   0  0  0  0  0  0  0  0  0  0  0  0
    0.4838  -10.6153   -2.0441 H   0  0  0  0  0  0  0  0  0  0  0  0
    0.7063   -9.6609   -3.5115 H   0  0  0  0  0  0  0  0  0  0  0  0
    0.0942   -8.8838   -2.0191 H   0  0  0  0  0  0  0  0  0  0  0  0
    4.1080   -7.1799   -0.9193 H   0  0  0  0  0  0  0  0  0  0  0  0
    4.8398   -5.0625   -1.8591 H   0  0  0  0  0  0  0  0  0  0  0  0
    4.2912   -3.2058   -3.6050 H   0  0  0  0  0  0  0  0  0  0  0  0
    6.3339   -4.5791   -3.5443 H   0  0  0  0  0  0  0  0  0  0  0  0
    4.4118   -5.6771   -6.2967 H   0  0  0  0  0  0  0  0  0  0  0  0
    7.4272   -7.8648   -6.3862 H   0  0  0  0  0  0  0  0  0  0  0  0
    7.6274   -9.7790   -7.8259 H   0  0  0  0  0  0  0  0  0  0  0  0
    6.8046  -11.1943   -9.5634 H   0  0  0  0  0  0  0  0  0  0  0  0
    5.6331  -10.4550  -10.6597 H   0  0  0  0  0  0  0  0  0  0  0  0
    5.0774  -11.5267   -9.3439 H   0  0  0  0  0  0  0  0  0  0  0  0
    3.6818   -9.1033   -9.3644 H   0  0  0  0  0  0  0  0  0  0  0  0
    2.5008   -7.1996   -8.8857 H   0  0  0  0  0  0  0  0  0  0  0  0
    3.2640   -5.8189   -8.1202 H   0  0  0  0  0  0  0  0  0  0  0  0
    2.4614   -7.0781   -7.1271 H   0  0  0  0  0  0  0  0  0  0  0  0
    6.3072   -2.2488   -4.3177 H   0  0  0  0  0  0  0  0  0  0  0  0
    8.4955   -3.7634   -5.7907 H   0  0  0  0  0  0  0  0  0  0  0  0
    8.5010   -3.2809   -4.0773 H   0  0  0  0  0  0  0  0  0  0  0  0
    8.4634   -2.0615   -5.3560 H   0  0  0  0  0  0  0  0  0  0  0  0
    6.6064   -2.4769   -7.0962 H   0  0  0  0  0  0  0  0  0  0  0  0
    1.8201   -2.7122   -7.8031 H   0  0  0  0  0  0  0  0  0  0  0  0
    2.2575   -5.7103   -5.2682 H   0  0  0  0  0  0  0  0  0  0  0  0
    1.5610   -7.8085   -4.3352 H   0  0  0  0  0  0  0  0  0  0  0  0
  1  2  1  0  0  0  0
  1 30  1  0  0  0  0
  1 31  1  0  0  0  0
  1 32  1  0  0  0  0
  2  3  1  0  0  0  0
  3  4  1  0  0  0  0
  3 29  2  0  0  0  0
  4  5  2  0  0  0  0
  4 33  1  0  0  0  0
  5  6  1  0  0  0  0
  5 34  1  0  0  0  0
  6 28  2  0  0  0  0
  7  8  1  0  0  0  0
  7 27  1  0  0  0  0
  7  6  1  0  0  0  0
  7 35  1  1  0  0  0
  8 20  1  0  0  0  0
  8  9  1  0  0  0  0
  8 36  1  1  0  0  0
  9 10  2  0  0  0  0
  9 11  1  0  0  0  0
 11 12  1  0  0  0  0
 11 37  1  0  0  0  0
 12 13  1  0  0  0  0
 12 18  2  0  0  0  0
 13 14  2  0  0  0  0
 13 38  1  0  0  0  0
 14 15  1  0  0  0  0
 14 39  1  0  0  0  0
 15 16  1  0  0  0  0
 15 17  2  0  0  0  0
 16 40  1  0  0  0  0
 16 41  1  0  0  0  0
 16 42  1  0  0  0  0
 17 18  1  0  0  0  0
 17 43  1  0  0  0  0
 18 19  1  0  0  0  0
 19 44  1  0  0  0  0
 19 45  1  0  0  0  0
 19 46  1  0  0  0  0
 20 21  1  0  0  0  0
 20 22  1  0  0  0  0
 20 47  1  1  0  0  0
 21 48  1  0  0  0  0
 21 49  1  0  0  0  0
 21 50  1  0  0  0  0
 22 23  1  0  0  0  0
 22 51  1  0  0  0  0
 23 24  2  0  0  0  0
 23 27  1  0  0  0  0
 24 25  1  0  0  0  0
 25 26  2  0  0  0  0
 25 52  1  0  0  0  0
 26 27  1  0  0  0  0
 28 29  1  0  0  0  0
 28 53  1  0  0  0  0
 29 54  1  0  0  0  0
M  END
$$$$
