
 OpenBabel01112423143D

 51 55  0  0  1  0  0  0  0  0999 V2000
   -3.9875   -1.4385   -0.1686 N   0  0  0  0  0  0  0  0  0  0  0  0
   -2.9740   -0.8783   -0.1243 C   0  0  0  0  0  0  0  0  0  0  0  0
   -1.7094   -0.2165   -0.0568 C   0  0  0  0  0  0  0  0  0  0  0  0
   -1.6492    1.1328   -0.0612 C   0  0  0  0  0  0  0  0  0  0  0  0
   -2.7227    1.9864   -0.0563 N   0  0  0  0  0  0  0  0  0  0  0  0
   -0.4339    1.8046   -0.0643 O   0  0  0  0  0  0  0  0  0  0  0  0
    0.7539    1.1027   -0.1389 C   0  0  0  0  0  0  0  0  0  0  0  0
    0.8010   -0.2371   -0.0657 C   0  0  0  0  0  0  0  0  0  0  0  0
    2.1291   -0.8801   -0.2637 C   0  0  0  0  0  0  0  0  0  0  0  0
    2.1765   -2.0447   -0.6548 O   0  0  0  0  0  0  0  0  0  0  0  0
    3.3960   -0.0591   -0.1331 C   0  0  0  0  0  0  0  0  0  0  0  0
    3.1626    1.3043    0.5360 C   0  0  2  0  0  0  0  0  0  0  0  0
    3.0337    1.2088    2.0586 C   0  0  0  0  0  0  0  0  0  0  0  0
    4.0908    0.6629    2.8069 C   0  0  0  0  0  0  0  0  0  0  0  0
    4.0022    0.5343    4.1962 C   0  0  0  0  0  0  0  0  0  0  0  0
    2.8588    0.9552    4.8673 C   0  0  0  0  0  0  0  0  0  0  0  0
    1.8121    1.5214    4.1521 C   0  0  0  0  0  0  0  0  0  0  0  0
    1.9055    1.6593    2.7659 C   0  0  0  0  0  0  0  0  0  0  0  0
    1.9817    1.9737   -0.1931 C   0  0  0  0  0  0  0  0  0  0  0  0
   -0.4489   -1.0815    0.0572 C   0  0  1  0  0  0  0  0  0  0  0  0
   -0.5554   -1.9552    1.3376 C   0  0  2  0  0  0  0  0  0  0  0  0
   -0.4248   -1.1394    2.5869 C   0  0  0  0  0  0  0  0  0  0  0  0
    0.5204   -1.5418    3.3683 N   0  0  0  0  0  0  0  0  0  0  0  0
    1.1368   -2.6761    2.7745 N   0  0  0  0  0  0  0  0  0  0  0  0
    0.5323   -2.9468    1.6506 C   0  0  0  0  0  0  0  0  0  0  0  0
    0.8314   -4.1468    0.8402 C   0  0  0  0  0  0  0  0  0  0  0  0
    1.8382   -5.0196    1.2787 C   0  0  0  0  0  0  0  0  0  0  0  0
    2.1519   -6.1600    0.5345 C   0  0  0  0  0  0  0  0  0  0  0  0
    1.4761   -6.4090   -0.6539 C   0  0  0  0  0  0  0  0  0  0  0  0
    1.7798   -7.4964   -1.3724 F   0  0  0  0  0  0  0  0  0  0  0  0
    0.4821   -5.5498   -1.1045 C   0  0  0  0  0  0  0  0  0  0  0  0
    0.1431   -4.4284   -0.3455 C   0  0  0  0  0  0  0  0  0  0  0  0
   -3.6128    1.6145   -0.3750 H   0  0  0  0  0  0  0  0  0  0  0  0
   -2.5016    2.9037   -0.4364 H   0  0  0  0  0  0  0  0  0  0  0  0
    3.7657    0.1014   -1.1547 H   0  0  0  0  0  0  0  0  0  0  0  0
    4.1439   -0.6583    0.3958 H   0  0  0  0  0  0  0  0  0  0  0  0
    4.0494    1.9276    0.3534 H   0  0  0  0  0  0  0  0  0  0  0  0
    4.9991    0.3186    2.3174 H   0  0  0  0  0  0  0  0  0  0  0  0
    4.8211    0.0895    4.7547 H   0  0  0  0  0  0  0  0  0  0  0  0
    2.7771    0.8318    5.9431 H   0  0  0  0  0  0  0  0  0  0  0  0
    0.9093    1.8375    4.6678 H   0  0  0  0  0  0  0  0  0  0  0  0
    1.0548    2.1123    2.2677 H   0  0  0  0  0  0  0  0  0  0  0  0
    2.2392    2.1466   -1.2464 H   0  0  0  0  0  0  0  0  0  0  0  0
    1.7786    2.9595    0.2413 H   0  0  0  0  0  0  0  0  0  0  0  0
   -0.4565   -1.7278   -0.8268 H   0  0  0  0  0  0  0  0  0  0  0  0
   -1.5113   -2.4886    1.3853 H   0  0  0  0  0  0  0  0  0  0  0  0
   -1.0954   -0.3012    2.8148 H   0  0  0  0  0  0  0  0  0  0  0  0
    2.3823   -4.8184    2.1995 H   0  0  0  0  0  0  0  0  0  0  0  0
    2.9198   -6.8459    0.8733 H   0  0  0  0  0  0  0  0  0  0  0  0
   -0.0223   -5.7549   -2.0429 H   0  0  0  0  0  0  0  0  0  0  0  0
   -0.6507   -3.7942   -0.7181 H   0  0  0  0  0  0  0  0  0  0  0  0
  1  2  3  0  0  0  0
  2  3  1  0  0  0  0
  3  4  2  0  0  0  0
  3 20  1  0  0  0  0
  4  5  1  0  0  0  0
  4  6  1  0  0  0  0
  5 33  1  0  0  0  0
  5 34  1  0  0  0  0
  6  7  1  0  0  0  0
  7  8  2  0  0  0  0
  7 19  1  0  0  0  0
  8  9  1  0  0  0  0
  8 20  1  0  0  0  0
  9 10  2  0  0  0  0
  9 11  1  0  0  0  0
 11 12  1  0  0  0  0
 11 35  1  0  0  0  0
 11 36  1  0  0  0  0
 12 19  1  0  0  0  0
 12 13  1  0  0  0  0
 12 37  1  6  0  0  0
 13 14  1  0  0  0  0
 13 18  2  0  0  0  0
 14 15  2  0  0  0  0
 14 38  1  0  0  0  0
 15 16  1  0  0  0  0
 15 39  1  0  0  0  0
 16 17  2  0  0  0  0
 16 40  1  0  0  0  0
 17 18  1  0  0  0  0
 17 41  1  0  0  0  0
 18 42  1  0  0  0  0
 19 43  1  0  0  0  0
 19 44  1  0  0  0  0
 20 21  1  0  0  0  0
 20 45  1  6  0  0  0
 21 22  1  0  0  0  0
 21 25  1  0  0  0  0
 21 46  1  1  0  0  0
 22 23  2  0  0  0  0
 22 47  1  0  0  0  0
 23 24  1  0  0  0  0
 24 25  2  0  0  0  0
 25 26  1  0  0  0  0
 26 27  1  0  0  0  0
 26 32  2  0  0  0  0
 27 28  2  0  0  0  0
 27 48  1  0  0  0  0
 28 29  1  0  0  0  0
 28 49  1  0  0  0  0
 29 30  1  0  0  0  0
 29 31  2  0  0  0  0
 31 32  1  0  0  0  0
 31 50  1  0  0  0  0
 32 51  1  0  0  0  0
M  END
$$$$
