
 OpenBabel01112423083D

 53 55  0  0  1  0  0  0  0  0999 V2000
    7.4581   -1.7263   -3.3243 C   0  0  0  0  0  0  0  0  0  0  0  0
    6.3051   -1.4500   -2.3671 C   0  0  0  0  0  0  0  0  0  0  0  0
    5.7640    0.0181   -2.3265 C   0  0  0  0  0  0  0  0  0  0  0  0
    5.2350    0.3916   -3.7322 C   0  0  0  0  0  0  0  0  0  0  0  0
    4.5373   -0.0022   -1.3818 C   0  0  0  0  0  0  0  0  0  0  0  0
    6.8723    1.0562   -1.8829 C   0  0  1  0  0  0  0  0  0  0  0  0
    6.4287    2.4601   -1.8039 N   0  0  0  0  0  0  0  0  0  0  0  0
    6.1185    2.8666   -0.4280 N   0  0  0  0  0  0  0  0  0  0  0  0
    6.4432    1.7991    0.5124 C   0  0  2  0  0  0  0  0  0  0  0  0
    6.9753    2.3887    1.6857 N   0  0  0  0  0  0  0  0  0  0  0  0
    6.1613    2.6477    2.7406 C   0  0  0  0  0  0  0  0  0  0  0  0
    4.9663    2.3969    2.7680 O   0  0  0  0  0  0  0  0  0  0  0  0
    6.8255    3.1889    3.8131 N   0  0  0  0  0  0  0  0  0  0  0  0
    6.0335    3.5901    4.9481 C   0  0  0  0  0  0  0  0  0  0  0  0
    6.8536    4.2160    6.0692 C   0  0  0  0  0  0  0  0  0  0  0  0
    5.9844    4.6073    7.2263 C   0  0  0  0  0  0  0  0  0  0  0  0
    5.7933    5.8327    7.7271 C   0  0  0  0  0  0  0  0  0  0  0  0
    6.2723    7.1376    7.4103 C   0  0  0  0  0  0  0  0  0  0  0  0
    5.8466    8.1740    8.1523 C   0  0  0  0  0  0  0  0  0  0  0  0
    4.9211    7.9979    9.2615 C   0  0  0  0  0  0  0  0  0  0  0  0
    4.4162    6.8048    9.6242 C   0  0  0  0  0  0  0  0  0  0  0  0
    4.8432    5.6343    8.8421 C   0  0  0  0  0  0  0  0  0  0  0  0
    4.5006    4.4141    8.9855 N   0  3  0  0  0  0  0  0  0  0  0  0
    5.1689    3.5804    7.9741 C   0  0  0  0  0  0  0  0  0  0  0  0
    7.6273    0.7242   -0.2639 S   0  0  0  0  0  0  0  0  0  0  0  0
    7.7401   -2.7836   -3.2605 H   0  0  0  0  0  0  0  0  0  0  0  0
    8.3439   -1.1352   -3.0808 H   0  0  0  0  0  0  0  0  0  0  0  0
    7.1779   -1.5323   -4.3633 H   0  0  0  0  0  0  0  0  0  0  0  0
    6.6113   -1.7658   -1.3623 H   0  0  0  0  0  0  0  0  0  0  0  0
    5.4824   -2.1236   -2.6438 H   0  0  0  0  0  0  0  0  0  0  0  0
    4.4847   -0.3316   -4.0729 H   0  0  0  0  0  0  0  0  0  0  0  0
    6.0386    0.4166   -4.4741 H   0  0  0  0  0  0  0  0  0  0  0  0
    4.7504    1.3729   -3.7404 H   0  0  0  0  0  0  0  0  0  0  0  0
    3.7612   -0.6804   -1.7551 H   0  0  0  0  0  0  0  0  0  0  0  0
    4.0782    0.9866   -1.2857 H   0  0  0  0  0  0  0  0  0  0  0  0
    4.8005   -0.3688   -0.3851 H   0  0  0  0  0  0  0  0  0  0  0  0
    7.6780    1.0270   -2.6244 H   0  0  0  0  0  0  0  0  0  0  0  0
    5.7132    2.6980   -2.4897 H   0  0  0  0  0  0  0  0  0  0  0  0
    5.1325    3.1018   -0.2958 H   0  0  0  0  0  0  0  0  0  0  0  0
    5.5486    1.2293    0.7650 H   0  0  0  0  0  0  0  0  0  0  0  0
    7.9404    2.6639    1.6535 H   0  0  0  0  0  0  0  0  0  0  0  0
    7.7008    3.6524    3.6099 H   0  0  0  0  0  0  0  0  0  0  0  0
    5.5156    2.6925    5.3086 H   0  0  0  0  0  0  0  0  0  0  0  0
    5.2636    4.2907    4.6000 H   0  0  0  0  0  0  0  0  0  0  0  0
    7.3871    5.0887    5.6732 H   0  0  0  0  0  0  0  0  0  0  0  0
    7.6252    3.5166    6.4124 H   0  0  0  0  0  0  0  0  0  0  0  0
    6.9578    7.2890    6.5819 H   0  0  0  0  0  0  0  0  0  0  0  0
    6.1848    9.1851    7.9345 H   0  0  0  0  0  0  0  0  0  0  0  0
    4.6414    8.8991    9.8058 H   0  0  0  0  0  0  0  0  0  0  0  0
    3.7268    6.7037   10.4521 H   0  0  0  0  0  0  0  0  0  0  0  0
    3.8449    4.1067    9.7020 H   0  0  0  0  0  0  0  0  0  0  0  0
    4.3956    3.1137    7.3589 H   0  0  0  0  0  0  0  0  0  0  0  0
    5.7835    2.8357    8.4856 H   0  0  0  0  0  0  0  0  0  0  0  0
  1  2  1  0  0  0  0
  1 26  1  0  0  0  0
  1 27  1  0  0  0  0
  1 28  1  0  0  0  0
  2  3  1  0  0  0  0
  2 29  1  0  0  0  0
  2 30  1  0  0  0  0
  3  4  1  0  0  0  0
  3  5  1  0  0  0  0
  4 31  1  0  0  0  0
  4 32  1  0  0  0  0
  4 33  1  0  0  0  0
  5 34  1  0  0  0  0
  5 35  1  0  0  0  0
  5 36  1  0  0  0  0
  6  7  1  0  0  0  0
  6 25  1  0  0  0  0
  6  3  1  0  0  0  0
  6 37  1  6  0  0  0
  7  8  1  0  0  0  0
  7 38  1  0  0  0  0
  8  9  1  0  0  0  0
  8 39  1  0  0  0  0
  9 25  1  0  0  0  0
  9 10  1  0  0  0  0
  9 40  1  1  0  0  0
 10 11  1  0  0  0  0
 10 41  1  0  0  0  0
 11 12  2  0  0  0  0
 11 13  1  0  0  0  0
 13 14  1  0  0  0  0
 13 42  1  0  0  0  0
 14 15  1  0  0  0  0
 14 43  1  0  0  0  0
 14 44  1  0  0  0  0
 15 16  1  0  0  0  0
 15 45  1  0  0  0  0
 15 46  1  0  0  0  0
 16 17  2  0  0  0  0
 16 24  1  0  0  0  0
 17 18  1  0  0  0  0
 17 22  1  0  0  0  0
 18 19  2  0  0  0  0
 18 47  1  0  0  0  0
 19 20  1  0  0  0  0
 19 48  1  0  0  0  0
 20 21  2  0  0  0  0
 20 49  1  0  0  0  0
 21 22  1  0  0  0  0
 21 50  1  0  0  0  0
 22 23  2  0  0  0  0
 23 24  1  0  0  0  0
 23 51  1  0  0  0  0
 24 52  1  0  0  0  0
 24 53  1  0  0  0  0
M  CHG  1  23   1
M  END
$$$$
