MODEL 1
REMARK VINA RESULT:   -11.423      0.000      0.000
REMARK INTER + INTRA:         -13.315
REMARK INTER:                 -13.427
REMARK INTRA:                   0.112
REMARK UNBOUND:                 0.112
REMARK  Name = 
REMARK  3 active torsions:
REMARK  status: ('A' for Active; 'I' for Inactive)
REMARK    1  A    between atoms: C_8  and  C_9
REMARK    2  A    between atoms: N_10  and  N_11
REMARK    3  A    between atoms: C_16  and  C_17
REMARK                            x       y       z     vdW  Elec       q    Type
REMARK                         _______ _______ _______ _____ _____    ______ ____
ROOT
ATOM      1  N   UNL     1      -9.760  -7.347  17.804  0.00  0.00    +0.000 N 
ATOM      2  C   UNL     1     -10.415  -6.770  16.684  0.00  0.00    +0.000 C 
ATOM      3  S   UNL     1     -10.640  -5.166  16.253  0.00  0.00    +0.000 SA
ATOM      4  N   UNL     1     -11.033  -7.818  15.972  0.00  0.00    +0.000 N 
ATOM      5  N   UNL     1     -10.783  -9.068  16.522  0.00  0.00    +0.000 N 
ATOM      6  C   UNL     1      -9.969  -8.823  17.754  0.00  0.00    +0.000 C 
ATOM      7  H   UNL     1     -11.649  -7.570  15.201  0.00  0.00    +0.000 HD
ATOM      8  H   UNL     1     -11.678  -9.497  16.758  0.00  0.00    +0.000 HD
ATOM      9  H   UNL     1     -10.597  -9.094  18.609  0.00  0.00    +0.000 HD
ENDROOT
BRANCH   6  10
ATOM     10  C   UNL     1      -8.672  -9.666  17.688  0.00  0.00    +0.000 C 
ATOM     11  N   UNL     1      -8.463 -10.549  18.906  0.00  0.00    +0.000 NA
ATOM     12  N   UNL     1      -8.412 -11.776  18.575  0.00  0.00    +0.000 NA
ATOM     13  C   UNL     1      -8.562 -11.864  17.233  0.00  0.00    +0.000 C 
ATOM     14  C   UNL     1      -8.717 -10.698  16.629  0.00  0.00    +0.000 C 
ATOM     15  C   UNL     1      -9.142 -10.829  15.229  0.00  0.00    +0.000 C 
ATOM     16  C   UNL     1      -8.867 -12.332  14.986  0.00  0.00    +0.000 C 
ATOM     17  C   UNL     1      -8.820 -13.027  16.366  0.00  0.00    +0.000 C 
ATOM     18  H   UNL     1      -7.781  -9.035  17.588  0.00  0.00    +0.000 HD
ATOM     19  H   UNL     1      -8.565 -10.200  14.547  0.00  0.00    +0.000 HD
ATOM     20  H   UNL     1     -10.208 -10.605  15.120  0.00  0.00    +0.000 HD
ATOM     21  H   UNL     1      -7.893 -12.445  14.491  0.00  0.00    +0.000 HD
ATOM     22  H   UNL     1      -9.616 -12.783  14.326  0.00  0.00    +0.000 HD
ATOM     23  H   UNL     1      -8.026 -13.776  16.407  0.00  0.00    +0.000 HD
ATOM     24  H   UNL     1      -9.779 -13.495  16.608  0.00  0.00    +0.000 HD
ENDBRANCH   6  10
BRANCH   1  26
ATOM     25  C   UNL     1      -7.916  -6.311  18.654  0.00  0.00    +0.000 C 
ATOM     26  N   UNL     1      -9.171  -6.566  18.834  0.00  0.00    +0.000 NA
ATOM     27  H   UNL     1      -7.355  -6.709  17.796  0.00  0.00    +0.000 HD
BRANCH  25  35
ATOM     28  F   UNL     1      -5.182  -6.130  18.355  0.00  0.00    +0.000 F 
ATOM     29  C   UNL     1      -5.743  -5.453  19.370  0.00  0.00    +0.000 A 
ATOM     30  C   UNL     1      -4.925  -4.719  20.217  0.00  0.00    +0.000 A 
ATOM     31  C   UNL     1      -5.496  -4.012  21.276  0.00  0.00    +0.000 A 
ATOM     32  C   UNL     1      -6.882  -4.042  21.469  0.00  0.00    +0.000 A 
ATOM     33 BR   UNL     1      -7.639  -3.080  22.909  0.00  0.00    +0.000 Br
ATOM     34  C   UNL     1      -7.706  -4.779  20.620  0.00  0.00    +0.000 A 
ATOM     35  C   UNL     1      -7.124  -5.491  19.573  0.00  0.00    +0.000 A 
ATOM     36  H   UNL     1      -3.852  -4.704  20.051  0.00  0.00    +0.000 HD
ATOM     37  H   UNL     1      -4.857  -3.444  21.945  0.00  0.00    +0.000 HD
ATOM     38  H   UNL     1      -8.784  -4.799  20.770  0.00  0.00    +0.000 HD
ENDBRANCH  25  35
ENDBRANCH   1  26
TORSDOF 3
ENDMDL
MODEL 2
REMARK VINA RESULT:   -10.431      3.137      7.283
REMARK INTER + INTRA:         -12.148
REMARK INTER:                 -12.734
REMARK INTRA:                   0.586
REMARK UNBOUND:                 0.112
REMARK  Name = 
REMARK  3 active torsions:
REMARK  status: ('A' for Active; 'I' for Inactive)
REMARK    1  A    between atoms: C_8  and  C_9
REMARK    2  A    between atoms: N_10  and  N_11
REMARK    3  A    between atoms: C_16  and  C_17
REMARK                            x       y       z     vdW  Elec       q    Type
REMARK                         _______ _______ _______ _____ _____    ______ ____
ROOT
ATOM      1  N   UNL     1      -8.785  -6.336  17.927  0.00  0.00    +0.000 N 
ATOM      2  C   UNL     1     -10.094  -5.791  17.857  0.00  0.00    +0.000 C 
ATOM      3  S   UNL     1     -11.499  -6.399  17.177  0.00  0.00    +0.000 SA
ATOM      4  N   UNL     1     -10.031  -4.478  18.366  0.00  0.00    +0.000 N 
ATOM      5  N   UNL     1      -8.766  -4.134  18.823  0.00  0.00    +0.000 N 
ATOM      6  C   UNL     1      -7.887  -5.312  18.534  0.00  0.00    +0.000 C 
ATOM      7  H   UNL     1     -10.860  -3.895  18.282  0.00  0.00    +0.000 HD
ATOM      8  H   UNL     1      -8.452  -3.313  18.306  0.00  0.00    +0.000 HD
ATOM      9  H   UNL     1      -7.178  -4.998  17.761  0.00  0.00    +0.000 HD
ENDROOT
BRANCH   6  10
ATOM     10  C   UNL     1      -7.176  -5.754  19.837  0.00  0.00    +0.000 C 
ATOM     11  N   UNL     1      -5.725  -6.146  19.630  0.00  0.00    +0.000 NA
ATOM     12  N   UNL     1      -4.951  -5.409  20.320  0.00  0.00    +0.000 NA
ATOM     13  C   UNL     1      -5.706  -4.522  21.008  0.00  0.00    +0.000 C 
ATOM     14  C   UNL     1      -7.006  -4.642  20.798  0.00  0.00    +0.000 C 
ATOM     15  C   UNL     1      -7.780  -3.515  21.334  0.00  0.00    +0.000 C 
ATOM     16  C   UNL     1      -6.721  -2.846  22.242  0.00  0.00    +0.000 C 
ATOM     17  C   UNL     1      -5.329  -3.309  21.753  0.00  0.00    +0.000 C 
ATOM     18  H   UNL     1      -7.680  -6.608  20.305  0.00  0.00    +0.000 HD
ATOM     19  H   UNL     1      -8.656  -3.832  21.907  0.00  0.00    +0.000 HD
ATOM     20  H   UNL     1      -8.092  -2.836  20.534  0.00  0.00    +0.000 HD
ATOM     21  H   UNL     1      -6.870  -3.182  23.278  0.00  0.00    +0.000 HD
ATOM     22  H   UNL     1      -6.813  -1.755  22.243  0.00  0.00    +0.000 HD
ATOM     23  H   UNL     1      -4.660  -3.513  22.593  0.00  0.00    +0.000 HD
ATOM     24  H   UNL     1      -4.872  -2.565  21.093  0.00  0.00    +0.000 HD
ENDBRANCH   6  10
BRANCH   1  26
ATOM     25  C   UNL     1      -9.180  -8.573  17.739  0.00  0.00    +0.000 C 
ATOM     26  N   UNL     1      -8.443  -7.587  17.345  0.00  0.00    +0.000 NA
ATOM     27  H   UNL     1      -9.971  -8.449  18.493  0.00  0.00    +0.000 HD
BRANCH  25  35
ATOM     28  F   UNL     1      -9.188  -9.070  15.028  0.00  0.00    +0.000 F 
ATOM     29  C   UNL     1      -9.050 -10.120  15.852  0.00  0.00    +0.000 A 
ATOM     30  C   UNL     1      -8.937 -11.390  15.304  0.00  0.00    +0.000 A 
ATOM     31  C   UNL     1      -8.795 -12.491  16.151  0.00  0.00    +0.000 A 
ATOM     32  C   UNL     1      -8.759 -12.305  17.537  0.00  0.00    +0.000 A 
ATOM     33 BR   UNL     1      -8.567 -13.806  18.669  0.00  0.00    +0.000 Br
ATOM     34  C   UNL     1      -8.872 -11.031  18.091  0.00  0.00    +0.000 A 
ATOM     35  C   UNL     1      -9.026  -9.940  17.237  0.00  0.00    +0.000 A 
ATOM     36  H   UNL     1      -8.964 -11.517  14.226  0.00  0.00    +0.000 HD
ATOM     37  H   UNL     1      -8.714 -13.486  15.724  0.00  0.00    +0.000 HD
ATOM     38  H   UNL     1      -8.841 -10.888  19.169  0.00  0.00    +0.000 HD
ENDBRANCH  25  35
ENDBRANCH   1  26
TORSDOF 3
ENDMDL
MODEL 3
REMARK VINA RESULT:   -10.240      3.525      6.787
REMARK INTER + INTRA:         -11.924
REMARK INTER:                 -11.596
REMARK INTRA:                  -0.328
REMARK UNBOUND:                 0.112
REMARK  Name = 
REMARK  3 active torsions:
REMARK  status: ('A' for Active; 'I' for Inactive)
REMARK    1  A    between atoms: C_8  and  C_9
REMARK    2  A    between atoms: N_10  and  N_11
REMARK    3  A    between atoms: C_16  and  C_17
REMARK                            x       y       z     vdW  Elec       q    Type
REMARK                         _______ _______ _______ _____ _____    ______ ____
ROOT
ATOM      1  N   UNL     1      -9.091  -6.780  18.376  0.00  0.00    +0.000 N 
ATOM      2  C   UNL     1      -7.991  -5.903  18.566  0.00  0.00    +0.000 C 
ATOM      3  S   UNL     1      -6.350  -6.215  18.696  0.00  0.00    +0.000 SA
ATOM      4  N   UNL     1      -8.514  -4.612  18.786  0.00  0.00    +0.000 N 
ATOM      5  N   UNL     1      -9.899  -4.568  18.701  0.00  0.00    +0.000 N 
ATOM      6  C   UNL     1     -10.345  -5.977  18.460  0.00  0.00    +0.000 C 
ATOM      7  H   UNL     1      -7.867  -3.876  19.058  0.00  0.00    +0.000 HD
ATOM      8  H   UNL     1     -10.262  -4.220  19.589  0.00  0.00    +0.000 HD
ATOM      9  H   UNL     1     -10.880  -6.299  19.360  0.00  0.00    +0.000 HD
ENDROOT
BRANCH   6  10
ATOM     10  C   UNL     1     -11.238  -6.024  17.197  0.00  0.00    +0.000 C 
ATOM     11  N   UNL     1     -12.304  -4.944  17.170  0.00  0.00    +0.000 NA
ATOM     12  N   UNL     1     -12.164  -4.191  16.154  0.00  0.00    +0.000 NA
ATOM     13  C   UNL     1     -11.098  -4.627  15.443  0.00  0.00    +0.000 C 
ATOM     14  C   UNL     1     -10.497  -5.683  15.962  0.00  0.00    +0.000 C 
ATOM     15  C   UNL     1      -9.202  -5.974  15.334  0.00  0.00    +0.000 C 
ATOM     16  C   UNL     1      -9.293  -5.088  14.068  0.00  0.00    +0.000 C 
ATOM     17  C   UNL     1     -10.355  -3.998  14.337  0.00  0.00    +0.000 C 
ATOM     18  H   UNL     1     -11.751  -6.988  17.097  0.00  0.00    +0.000 HD
ATOM     19  H   UNL     1      -9.078  -7.029  15.077  0.00  0.00    +0.000 HD
ATOM     20  H   UNL     1      -8.374  -5.653  15.974  0.00  0.00    +0.000 HD
ATOM     21  H   UNL     1      -9.617  -5.706  13.219  0.00  0.00    +0.000 HD
ATOM     22  H   UNL     1      -8.323  -4.658  13.798  0.00  0.00    +0.000 HD
ATOM     23  H   UNL     1     -10.972  -3.817  13.454  0.00  0.00    +0.000 HD
ATOM     24  H   UNL     1      -9.889  -3.060  14.657  0.00  0.00    +0.000 HD
ENDBRANCH   6  10
BRANCH   1  26
ATOM     25  C   UNL     1      -9.025  -8.663  17.093  0.00  0.00    +0.000 C 
ATOM     26  N   UNL     1      -8.941  -8.190  18.293  0.00  0.00    +0.000 NA
ATOM     27  H   UNL     1      -9.239  -8.022  16.225  0.00  0.00    +0.000 HD
BRANCH  25  35
ATOM     28  F   UNL     1      -8.706  -9.478  14.479  0.00  0.00    +0.000 F 
ATOM     29  C   UNL     1      -8.716 -10.426  15.429  0.00  0.00    +0.000 A 
ATOM     30  C   UNL     1      -8.583 -11.754  15.050  0.00  0.00    +0.000 A 
ATOM     31  C   UNL     1      -8.593 -12.749  16.029  0.00  0.00    +0.000 A 
ATOM     32  C   UNL     1      -8.727 -12.401  17.378  0.00  0.00    +0.000 A 
ATOM     33 BR   UNL     1      -8.739 -13.760  18.691  0.00  0.00    +0.000 Br
ATOM     34  C   UNL     1      -8.860 -11.067  17.762  0.00  0.00    +0.000 A 
ATOM     35  C   UNL     1      -8.862 -10.083  16.775  0.00  0.00    +0.000 A 
ATOM     36  H   UNL     1      -8.476 -12.007  14.000  0.00  0.00    +0.000 HD
ATOM     37  H   UNL     1      -8.497 -13.789  15.734  0.00  0.00    +0.000 HD
ATOM     38  H   UNL     1      -8.962 -10.798  18.812  0.00  0.00    +0.000 HD
ENDBRANCH  25  35
ENDBRANCH   1  26
TORSDOF 3
ENDMDL
MODEL 4
REMARK VINA RESULT:    -9.850      2.973      4.353
REMARK INTER + INTRA:         -11.466
REMARK INTER:                 -11.053
REMARK INTRA:                  -0.412
REMARK UNBOUND:                 0.112
REMARK  Name = 
REMARK  3 active torsions:
REMARK  status: ('A' for Active; 'I' for Inactive)
REMARK    1  A    between atoms: C_8  and  C_9
REMARK    2  A    between atoms: N_10  and  N_11
REMARK    3  A    between atoms: C_16  and  C_17
REMARK                            x       y       z     vdW  Elec       q    Type
REMARK                         _______ _______ _______ _____ _____    ______ ____
ROOT
ATOM      1  N   UNL     1      -7.803  -5.533  19.308  0.00  0.00    +0.000 N 
ATOM      2  C   UNL     1      -6.445  -5.796  18.985  0.00  0.00    +0.000 C 
ATOM      3  S   UNL     1      -5.042  -5.547  19.866  0.00  0.00    +0.000 SA
ATOM      4  N   UNL     1      -6.406  -6.215  17.640  0.00  0.00    +0.000 N 
ATOM      5  N   UNL     1      -7.665  -6.298  17.061  0.00  0.00    +0.000 N 
ATOM      6  C   UNL     1      -8.632  -5.832  18.105  0.00  0.00    +0.000 C 
ATOM      7  H   UNL     1      -5.493  -6.333  17.205  0.00  0.00    +0.000 HD
ATOM      8  H   UNL     1      -7.684  -5.681  16.248  0.00  0.00    +0.000 HD
ATOM      9  H   UNL     1      -9.049  -4.883  17.750  0.00  0.00    +0.000 HD
ENDROOT
BRANCH   6  10
ATOM     10  C   UNL     1      -9.722  -6.912  18.313  0.00  0.00    +0.000 C 
ATOM     11  N   UNL     1     -10.308  -7.437  17.014  0.00  0.00    +0.000 NA
ATOM     12  N   UNL     1     -10.119  -8.690  16.903  0.00  0.00    +0.000 NA
ATOM     13  C   UNL     1      -9.453  -9.120  18.000  0.00  0.00    +0.000 C 
ATOM     14  C   UNL     1      -9.180  -8.168  18.875  0.00  0.00    +0.000 C 
ATOM     15  C   UNL     1      -8.236  -8.598  19.915  0.00  0.00    +0.000 C 
ATOM     16  C   UNL     1      -8.261 -10.131  19.708  0.00  0.00    +0.000 C 
ATOM     17  C   UNL     1      -8.778 -10.400  18.277  0.00  0.00    +0.000 C 
ATOM     18  H   UNL     1     -10.557  -6.536  18.916  0.00  0.00    +0.000 HD
ATOM     19  H   UNL     1      -8.557  -8.324  20.923  0.00  0.00    +0.000 HD
ATOM     20  H   UNL     1      -7.235  -8.196  19.727  0.00  0.00    +0.000 HD
ATOM     21  H   UNL     1      -8.953 -10.581  20.433  0.00  0.00    +0.000 HD
ATOM     22  H   UNL     1      -7.279 -10.583  19.881  0.00  0.00    +0.000 HD
ATOM     23  H   UNL     1      -9.456 -11.257  18.253  0.00  0.00    +0.000 HD
ATOM     24  H   UNL     1      -7.950 -10.569  17.581  0.00  0.00    +0.000 HD
ENDBRANCH   6  10
BRANCH   1  26
ATOM     25  C   UNL     1      -8.110  -3.644  20.545  0.00  0.00    +0.000 C 
ATOM     26  N   UNL     1      -8.197  -4.934  20.534  0.00  0.00    +0.000 NA
ATOM     27  H   UNL     1      -7.721  -3.076  19.688  0.00  0.00    +0.000 HD
BRANCH  25  35
ATOM     28  F   UNL     1      -6.904  -4.009  22.996  0.00  0.00    +0.000 F 
ATOM     29  C   UNL     1      -7.858  -3.069  22.906  0.00  0.00    +0.000 A 
ATOM     30  C   UNL     1      -8.196  -2.349  24.044  0.00  0.00    +0.000 A 
ATOM     31  C   UNL     1      -9.188  -1.370  23.963  0.00  0.00    +0.000 A 
ATOM     32  C   UNL     1      -9.822  -1.117  22.742  0.00  0.00    +0.000 A 
ATOM     33 BR   UNL     1     -11.163   0.212  22.651  0.00  0.00    +0.000 Br
ATOM     34  C   UNL     1      -9.485  -1.838  21.598  0.00  0.00    +0.000 A 
ATOM     35  C   UNL     1      -8.503  -2.823  21.692  0.00  0.00    +0.000 A 
ATOM     36  H   UNL     1      -7.692  -2.555  24.982  0.00  0.00    +0.000 HD
ATOM     37  H   UNL     1      -9.459  -0.811  24.854  0.00  0.00    +0.000 HD
ATOM     38  H   UNL     1      -9.978  -1.639  20.649  0.00  0.00    +0.000 HD
ENDBRANCH  25  35
ENDBRANCH   1  26
TORSDOF 3
ENDMDL
MODEL 5
REMARK VINA RESULT:    -9.848      3.807      7.394
REMARK INTER + INTRA:         -11.463
REMARK INTER:                 -11.495
REMARK INTRA:                   0.031
REMARK UNBOUND:                 0.112
REMARK  Name = 
REMARK  3 active torsions:
REMARK  status: ('A' for Active; 'I' for Inactive)
REMARK    1  A    between atoms: C_8  and  C_9
REMARK    2  A    between atoms: N_10  and  N_11
REMARK    3  A    between atoms: C_16  and  C_17
REMARK                            x       y       z     vdW  Elec       q    Type
REMARK                         _______ _______ _______ _____ _____    ______ ____
ROOT
ATOM      1  N   UNL     1      -8.681  -6.107  18.235  0.00  0.00    +0.000 N 
ATOM      2  C   UNL     1      -7.916  -5.463  19.243  0.00  0.00    +0.000 C 
ATOM      3  S   UNL     1      -6.488  -5.917  19.993  0.00  0.00    +0.000 SA
ATOM      4  N   UNL     1      -8.650  -4.340  19.676  0.00  0.00    +0.000 N 
ATOM      5  N   UNL     1      -9.838  -4.167  18.978  0.00  0.00    +0.000 N 
ATOM      6  C   UNL     1      -9.931  -5.321  18.028  0.00  0.00    +0.000 C 
ATOM      7  H   UNL     1      -8.303  -3.826  20.482  0.00  0.00    +0.000 HD
ATOM      8  H   UNL     1     -10.607  -4.186  19.647  0.00  0.00    +0.000 HD
ATOM      9  H   UNL     1     -10.768  -5.942  18.364  0.00  0.00    +0.000 HD
ENDROOT
BRANCH   6  10
ATOM     10  C   UNL     1     -10.138  -4.786  16.589  0.00  0.00    +0.000 C 
ATOM     11  N   UNL     1     -11.290  -5.451  15.858  0.00  0.00    +0.000 NA
ATOM     12  N   UNL     1     -12.169  -4.596  15.521  0.00  0.00    +0.000 NA
ATOM     13  C   UNL     1     -11.760  -3.375  15.939  0.00  0.00    +0.000 C 
ATOM     14  C   UNL     1     -10.597  -3.380  16.565  0.00  0.00    +0.000 C 
ATOM     15  C   UNL     1     -10.302  -2.108  17.238  0.00  0.00    +0.000 C 
ATOM     16  C   UNL     1     -11.366  -1.189  16.593  0.00  0.00    +0.000 C 
ATOM     17  C   UNL     1     -12.484  -2.095  16.029  0.00  0.00    +0.000 C 
ATOM     18  H   UNL     1      -9.241  -4.920  15.973  0.00  0.00    +0.000 HD
ATOM     19  H   UNL     1      -9.289  -1.747  17.044  0.00  0.00    +0.000 HD
ATOM     20  H   UNL     1     -10.461  -2.190  18.318  0.00  0.00    +0.000 HD
ATOM     21  H   UNL     1     -10.905  -0.629  15.768  0.00  0.00    +0.000 HD
ATOM     22  H   UNL     1     -11.755  -0.452  17.303  0.00  0.00    +0.000 HD
ATOM     23  H   UNL     1     -12.839  -1.734  15.061  0.00  0.00    +0.000 HD
ATOM     24  H   UNL     1     -13.327  -2.166  16.725  0.00  0.00    +0.000 HD
ENDBRANCH   6  10
BRANCH   1  26
ATOM     25  C   UNL     1      -9.249  -8.266  17.773  0.00  0.00    +0.000 C 
ATOM     26  N   UNL     1      -8.322  -7.368  17.689  0.00  0.00    +0.000 NA
ATOM     27  H   UNL     1     -10.211  -8.069  18.267  0.00  0.00    +0.000 HD
BRANCH  25  35
ATOM     28  F   UNL     1      -9.373  -8.712  15.056  0.00  0.00    +0.000 F 
ATOM     29  C   UNL     1      -9.188  -9.776  15.853  0.00  0.00    +0.000 A 
ATOM     30  C   UNL     1      -9.088 -11.034  15.276  0.00  0.00    +0.000 A 
ATOM     31  C   UNL     1      -8.897 -12.148  16.095  0.00  0.00    +0.000 A 
ATOM     32  C   UNL     1      -8.800 -11.988  17.482  0.00  0.00    +0.000 A 
ATOM     33 BR   UNL     1      -8.543 -13.508  18.576  0.00  0.00    +0.000 Br
ATOM     34  C   UNL     1      -8.901 -10.726  18.064  0.00  0.00    +0.000 A 
ATOM     35  C   UNL     1      -9.104  -9.621  17.238  0.00  0.00    +0.000 A 
ATOM     36  H   UNL     1      -9.161 -11.141  14.199  0.00  0.00    +0.000 HD
ATOM     37  H   UNL     1      -8.826 -13.135  15.646  0.00  0.00    +0.000 HD
ATOM     38  H   UNL     1      -8.823 -10.603  19.143  0.00  0.00    +0.000 HD
ENDBRANCH  25  35
ENDBRANCH   1  26
TORSDOF 3
ENDMDL
MODEL 6
REMARK VINA RESULT:    -9.730      2.206      4.651
REMARK INTER + INTRA:         -11.324
REMARK INTER:                 -10.867
REMARK INTRA:                  -0.457
REMARK UNBOUND:                 0.112
REMARK  Name = 
REMARK  3 active torsions:
REMARK  status: ('A' for Active; 'I' for Inactive)
REMARK    1  A    between atoms: C_8  and  C_9
REMARK    2  A    between atoms: N_10  and  N_11
REMARK    3  A    between atoms: C_16  and  C_17
REMARK                            x       y       z     vdW  Elec       q    Type
REMARK                         _______ _______ _______ _____ _____    ______ ____
ROOT
ATOM      1  N   UNL     1      -9.247  -7.805  17.837  0.00  0.00    +0.000 N 
ATOM      2  C   UNL     1      -9.281  -9.206  17.608  0.00  0.00    +0.000 C 
ATOM      3  S   UNL     1      -8.579 -10.472  18.452  0.00  0.00    +0.000 SA
ATOM      4  N   UNL     1      -9.939  -9.416  16.379  0.00  0.00    +0.000 N 
ATOM      5  N   UNL     1     -10.393  -8.239  15.800  0.00  0.00    +0.000 N 
ATOM      6  C   UNL     1      -9.941  -7.132  16.702  0.00  0.00    +0.000 C 
ATOM      7  H   UNL     1      -9.950 -10.360  16.000  0.00  0.00    +0.000 HD
ATOM      8  H   UNL     1      -9.967  -8.152  14.877  0.00  0.00    +0.000 HD
ATOM      9  H   UNL     1      -9.188  -6.560  16.149  0.00  0.00    +0.000 HD
ENDROOT
BRANCH   6  10
ATOM     10  C   UNL     1     -11.160  -6.265  17.102  0.00  0.00    +0.000 C 
ATOM     11  N   UNL     1     -11.006  -5.593  18.454  0.00  0.00    +0.000 NA
ATOM     12  N   UNL     1     -11.064  -4.327  18.343  0.00  0.00    +0.000 NA
ATOM     13  C   UNL     1     -11.248  -4.021  17.037  0.00  0.00    +0.000 C 
ATOM     14  C   UNL     1     -11.319  -5.073  16.240  0.00  0.00    +0.000 C 
ATOM     15  C   UNL     1     -11.249  -4.720  14.816  0.00  0.00    +0.000 C 
ATOM     16  C   UNL     1     -11.484  -3.193  14.888  0.00  0.00    +0.000 C 
ATOM     17  C   UNL     1     -11.144  -2.736  16.324  0.00  0.00    +0.000 C 
ATOM     18  H   UNL     1     -12.084  -6.854  17.136  0.00  0.00    +0.000 HD
ATOM     19  H   UNL     1     -12.014  -5.216  14.214  0.00  0.00    +0.000 HD
ATOM     20  H   UNL     1     -10.259  -4.942  14.405  0.00  0.00    +0.000 HD
ATOM     21  H   UNL     1     -12.542  -2.981  14.682  0.00  0.00    +0.000 HD
ATOM     22  H   UNL     1     -10.898  -2.653  14.136  0.00  0.00    +0.000 HD
ATOM     23  H   UNL     1     -11.856  -1.988  16.683  0.00  0.00    +0.000 HD
ATOM     24  H   UNL     1     -10.128  -2.332  16.383  0.00  0.00    +0.000 HD
ENDBRANCH   6  10
BRANCH   1  26
ATOM     25  C   UNL     1      -7.759  -6.231  18.548  0.00  0.00    +0.000 C 
ATOM     26  N   UNL     1      -8.512  -7.221  18.903  0.00  0.00    +0.000 NA
ATOM     27  H   UNL     1      -7.672  -5.909  17.500  0.00  0.00    +0.000 HD
BRANCH  25  35
ATOM     28  F   UNL     1      -5.023  -6.098  18.246  0.00  0.00    +0.000 F 
ATOM     29  C   UNL     1      -5.566  -5.445  19.285  0.00  0.00    +0.000 A 
ATOM     30  C   UNL     1      -4.730  -4.759  20.156  0.00  0.00    +0.000 A 
ATOM     31  C   UNL     1      -5.284  -4.079  21.241  0.00  0.00    +0.000 A 
ATOM     32  C   UNL     1      -6.669  -4.086  21.438  0.00  0.00    +0.000 A 
ATOM     33 BR   UNL     1      -7.402  -3.160  22.913  0.00  0.00    +0.000 Br
ATOM     34  C   UNL     1      -7.511  -4.774  20.566  0.00  0.00    +0.000 A 
ATOM     35  C   UNL     1      -6.947  -5.461  19.492  0.00  0.00    +0.000 A 
ATOM     36  H   UNL     1      -3.658  -4.761  19.987  0.00  0.00    +0.000 HD
ATOM     37  H   UNL     1      -4.631  -3.548  21.927  0.00  0.00    +0.000 HD
ATOM     38  H   UNL     1      -8.589  -4.777  20.719  0.00  0.00    +0.000 HD
ENDBRANCH  25  35
ENDBRANCH   1  26
TORSDOF 3
ENDMDL
MODEL 7
REMARK VINA RESULT:    -9.621      2.295      2.884
REMARK INTER + INTRA:         -11.196
REMARK INTER:                 -10.993
REMARK INTRA:                  -0.203
REMARK UNBOUND:                 0.112
REMARK  Name = 
REMARK  3 active torsions:
REMARK  status: ('A' for Active; 'I' for Inactive)
REMARK    1  A    between atoms: C_8  and  C_9
REMARK    2  A    between atoms: N_10  and  N_11
REMARK    3  A    between atoms: C_16  and  C_17
REMARK                            x       y       z     vdW  Elec       q    Type
REMARK                         _______ _______ _______ _____ _____    ______ ____
ROOT
ATOM      1  N   UNL     1     -10.847  -5.548  17.476  0.00  0.00    +0.000 N 
ATOM      2  C   UNL     1     -11.368  -4.916  16.316  0.00  0.00    +0.000 C 
ATOM      3  S   UNL     1     -11.748  -3.311  16.020  0.00  0.00    +0.000 SA
ATOM      4  N   UNL     1     -11.685  -5.930  15.389  0.00  0.00    +0.000 N 
ATOM      5  N   UNL     1     -11.355  -7.200  15.843  0.00  0.00    +0.000 N 
ATOM      6  C   UNL     1     -10.822  -7.019  17.231  0.00  0.00    +0.000 C 
ATOM      7  H   UNL     1     -12.181  -5.663  14.542  0.00  0.00    +0.000 HD
ATOM      8  H   UNL     1     -12.204  -7.766  15.852  0.00  0.00    +0.000 HD
ATOM      9  H   UNL     1     -11.548  -7.477  17.912  0.00  0.00    +0.000 HD
ENDROOT
BRANCH   6  10
ATOM     10  C   UNL     1      -9.424  -7.676  17.334  0.00  0.00    +0.000 C 
ATOM     11  N   UNL     1      -8.990  -7.950  18.762  0.00  0.00    +0.000 NA
ATOM     12  N   UNL     1      -8.783  -9.192  18.945  0.00  0.00    +0.000 NA
ATOM     13  C   UNL     1      -9.026  -9.841  17.783  0.00  0.00    +0.000 C 
ATOM     14  C   UNL     1      -9.400  -9.052  16.790  0.00  0.00    +0.000 C 
ATOM     15  C   UNL     1      -9.912  -9.792  15.630  0.00  0.00    +0.000 C 
ATOM     16  C   UNL     1      -9.438 -11.225  15.972  0.00  0.00    +0.000 C 
ATOM     17  C   UNL     1      -9.177 -11.278  17.495  0.00  0.00    +0.000 C 
ATOM     18  H   UNL     1      -8.648  -7.055  16.872  0.00  0.00    +0.000 HD
ATOM     19  H   UNL     1      -9.492  -9.446  14.682  0.00  0.00    +0.000 HD
ATOM     20  H   UNL     1     -11.005  -9.745  15.585  0.00  0.00    +0.000 HD
ATOM     21  H   UNL     1      -8.501 -11.431  15.438  0.00  0.00    +0.000 HD
ATOM     22  H   UNL     1     -10.162 -11.982  15.654  0.00  0.00    +0.000 HD
ATOM     23  H   UNL     1      -8.280 -11.858  17.725  0.00  0.00    +0.000 HD
ATOM     24  H   UNL     1     -10.034 -11.701  18.030  0.00  0.00    +0.000 HD
ENDBRANCH   6  10
BRANCH   1  26
ATOM     25  C   UNL     1      -9.416  -4.273  18.709  0.00  0.00    +0.000 C 
ATOM     26  N   UNL     1     -10.577  -4.841  18.678  0.00  0.00    +0.000 NA
ATOM     27  H   UNL     1      -8.693  -4.374  17.887  0.00  0.00    +0.000 HD
BRANCH  25  35
ATOM     28  F   UNL     1     -10.454  -1.756  19.136  0.00  0.00    +0.000 F 
ATOM     29  C   UNL     1      -9.511  -2.192  19.986  0.00  0.00    +0.000 A 
ATOM     30  C   UNL     1      -9.098  -1.356  21.014  0.00  0.00    +0.000 A 
ATOM     31  C   UNL     1      -8.117  -1.798  21.903  0.00  0.00    +0.000 A 
ATOM     32  C   UNL     1      -7.567  -3.076  21.757  0.00  0.00    +0.000 A 
ATOM     33 BR   UNL     1      -6.239  -3.659  22.969  0.00  0.00    +0.000 Br
ATOM     34  C   UNL     1      -7.978  -3.918  20.726  0.00  0.00    +0.000 A 
ATOM     35  C   UNL     1      -8.950  -3.462  19.836  0.00  0.00    +0.000 A 
ATOM     36  H   UNL     1      -9.538  -0.369  21.116  0.00  0.00    +0.000 HD
ATOM     37  H   UNL     1      -7.788  -1.143  22.704  0.00  0.00    +0.000 HD
ATOM     38  H   UNL     1      -7.551  -4.913  20.614  0.00  0.00    +0.000 HD
ENDBRANCH  25  35
ENDBRANCH   1  26
TORSDOF 3
ENDMDL
MODEL 8
REMARK VINA RESULT:    -9.548      4.201      8.623
REMARK INTER + INTRA:         -11.111
REMARK INTER:                 -10.853
REMARK INTRA:                  -0.257
REMARK UNBOUND:                 0.112
REMARK  Name = 
REMARK  3 active torsions:
REMARK  status: ('A' for Active; 'I' for Inactive)
REMARK    1  A    between atoms: C_8  and  C_9
REMARK    2  A    between atoms: N_10  and  N_11
REMARK    3  A    between atoms: C_16  and  C_17
REMARK                            x       y       z     vdW  Elec       q    Type
REMARK                         _______ _______ _______ _____ _____    ______ ____
ROOT
ATOM      1  N   UNL     1      -6.997  -4.377  20.873  0.00  0.00    +0.000 N 
ATOM      2  C   UNL     1      -5.600  -4.505  20.649  0.00  0.00    +0.000 C 
ATOM      3  S   UNL     1      -4.725  -5.675  19.829  0.00  0.00    +0.000 SA
ATOM      4  N   UNL     1      -4.960  -3.493  21.392  0.00  0.00    +0.000 N 
ATOM      5  N   UNL     1      -5.852  -2.662  22.056  0.00  0.00    +0.000 N 
ATOM      6  C   UNL     1      -7.217  -3.211  21.776  0.00  0.00    +0.000 C 
ATOM      7  H   UNL     1      -3.944  -3.509  21.441  0.00  0.00    +0.000 HD
ATOM      8  H   UNL     1      -5.643  -2.702  23.054  0.00  0.00    +0.000 HD
ATOM      9  H   UNL     1      -7.603  -3.600  22.725  0.00  0.00    +0.000 HD
ENDROOT
BRANCH   6  10
ATOM     10  C   UNL     1      -8.112  -2.090  21.193  0.00  0.00    +0.000 C 
ATOM     11  N   UNL     1      -9.395  -2.606  20.567  0.00  0.00    +0.000 NA
ATOM     12  N   UNL     1     -10.415  -2.116  21.149  0.00  0.00    +0.000 NA
ATOM     13  C   UNL     1      -9.989  -1.292  22.135  0.00  0.00    +0.000 C 
ATOM     14  C   UNL     1      -8.674  -1.208  22.239  0.00  0.00    +0.000 C 
ATOM     15  C   UNL     1      -8.238  -0.532  23.468  0.00  0.00    +0.000 C 
ATOM     16  C   UNL     1      -9.568   0.109  23.930  0.00  0.00    +0.000 C 
ATOM     17  C   UNL     1     -10.720  -0.667  23.251  0.00  0.00    +0.000 C 
ATOM     18  H   UNL     1      -7.587  -1.509  20.426  0.00  0.00    +0.000 HD
ATOM     19  H   UNL     1      -7.469   0.224  23.290  0.00  0.00    +0.000 HD
ATOM     20  H   UNL     1      -7.877  -1.255  24.207  0.00  0.00    +0.000 HD
ATOM     21  H   UNL     1      -9.596   1.157  23.602  0.00  0.00    +0.000 HD
ATOM     22  H   UNL     1      -9.664   0.112  25.021  0.00  0.00    +0.000 HD
ATOM     23  H   UNL     1     -11.513   0.007  22.920  0.00  0.00    +0.000 HD
ATOM     24  H   UNL     1     -11.139  -1.424  23.922  0.00  0.00    +0.000 HD
ENDBRANCH   6  10
BRANCH   1  26
ATOM     25  C   UNL     1      -8.097  -5.348  19.128  0.00  0.00    +0.000 C 
ATOM     26  N   UNL     1      -7.938  -5.336  20.411  0.00  0.00    +0.000 NA
ATOM     27  H   UNL     1      -7.575  -4.641  18.467  0.00  0.00    +0.000 HD
BRANCH  25  35
ATOM     28  F   UNL     1     -10.502  -4.477  18.103  0.00  0.00    +0.000 F 
ATOM     29  C   UNL     1     -10.196  -5.775  17.954  0.00  0.00    +0.000 A 
ATOM     30  C   UNL     1     -11.104  -6.607  17.314  0.00  0.00    +0.000 A 
ATOM     31  C   UNL     1     -10.798  -7.960  17.154  0.00  0.00    +0.000 A 
ATOM     32  C   UNL     1      -9.582  -8.461  17.630  0.00  0.00    +0.000 A 
ATOM     33 BR   UNL     1      -9.183 -10.295  17.407  0.00  0.00    +0.000 Br
ATOM     34  C   UNL     1      -8.668  -7.629  18.274  0.00  0.00    +0.000 A 
ATOM     35  C   UNL     1      -8.989  -6.282  18.439  0.00  0.00    +0.000 A 
ATOM     36  H   UNL     1     -12.042  -6.202  16.947  0.00  0.00    +0.000 HD
ATOM     37  H   UNL     1     -11.510  -8.614  16.660  0.00  0.00    +0.000 HD
ATOM     38  H   UNL     1      -7.721  -8.020  18.642  0.00  0.00    +0.000 HD
ENDBRANCH  25  35
ENDBRANCH   1  26
TORSDOF 3
ENDMDL
MODEL 9
REMARK VINA RESULT:    -9.268      4.054      5.786
REMARK INTER + INTRA:         -10.782
REMARK INTER:                 -10.845
REMARK INTRA:                   0.063
REMARK UNBOUND:                 0.112
REMARK  Name = 
REMARK  3 active torsions:
REMARK  status: ('A' for Active; 'I' for Inactive)
REMARK    1  A    between atoms: C_8  and  C_9
REMARK    2  A    between atoms: N_10  and  N_11
REMARK    3  A    between atoms: C_16  and  C_17
REMARK                            x       y       z     vdW  Elec       q    Type
REMARK                         _______ _______ _______ _____ _____    ______ ____
ROOT
ATOM      1  N   UNL     1      -9.291  -6.327  17.264  0.00  0.00    +0.000 N 
ATOM      2  C   UNL     1      -9.179  -5.777  18.568  0.00  0.00    +0.000 C 
ATOM      3  S   UNL     1      -9.410  -4.211  19.120  0.00  0.00    +0.000 SA
ATOM      4  N   UNL     1      -8.667  -6.786  19.409  0.00  0.00    +0.000 N 
ATOM      5  N   UNL     1      -8.482  -7.995  18.753  0.00  0.00    +0.000 N 
ATOM      6  C   UNL     1      -8.850  -7.751  17.322  0.00  0.00    +0.000 C 
ATOM      7  H   UNL     1      -8.412  -6.529  20.359  0.00  0.00    +0.000 HD
ATOM      8  H   UNL     1      -7.499  -8.256  18.835  0.00  0.00    +0.000 HD
ATOM      9  H   UNL     1      -7.927  -7.831  16.738  0.00  0.00    +0.000 HD
ENDROOT
BRANCH   6  10
ATOM     10  C   UNL     1      -9.915  -8.785  16.881  0.00  0.00    +0.000 C 
ATOM     11  N   UNL     1     -10.212  -8.749  15.394  0.00  0.00    +0.000 NA
ATOM     12  N   UNL     1      -9.954  -9.870  14.850  0.00  0.00    +0.000 NA
ATOM     13  C   UNL     1      -9.500 -10.713  15.806  0.00  0.00    +0.000 C 
ATOM     14  C   UNL     1      -9.443 -10.181  17.014  0.00  0.00    +0.000 C 
ATOM     15  C   UNL     1      -8.704 -11.012  17.974  0.00  0.00    +0.000 C 
ATOM     16  C   UNL     1      -8.626 -12.347  17.195  0.00  0.00    +0.000 C 
ATOM     17  C   UNL     1      -8.841 -12.026  15.698  0.00  0.00    +0.000 C 
ATOM     18  H   UNL     1     -10.866  -8.637  17.406  0.00  0.00    +0.000 HD
ATOM     19  H   UNL     1      -9.227 -11.133  18.926  0.00  0.00    +0.000 HD
ATOM     20  H   UNL     1      -7.703 -10.608  18.154  0.00  0.00    +0.000 HD
ATOM     21  H   UNL     1      -9.428 -13.013  17.541  0.00  0.00    +0.000 HD
ATOM     22  H   UNL     1      -7.679 -12.868  17.371  0.00  0.00    +0.000 HD
ATOM     23  H   UNL     1      -9.466 -12.782  15.215  0.00  0.00    +0.000 HD
ATOM     24  H   UNL     1      -7.886 -11.947  15.168  0.00  0.00    +0.000 HD
ENDBRANCH   6  10
BRANCH   1  26
ATOM     25  C   UNL     1     -10.702  -4.849  16.254  0.00  0.00    +0.000 C 
ATOM     26  N   UNL     1      -9.618  -5.542  16.126  0.00  0.00    +0.000 NA
ATOM     27  H   UNL     1     -11.330  -4.905  17.154  0.00  0.00    +0.000 HD
BRANCH  25  35
ATOM     28  F   UNL     1     -11.630  -2.343  16.927  0.00  0.00    +0.000 F 
ATOM     29  C   UNL     1     -11.666  -2.692  15.632  0.00  0.00    +0.000 A 
ATOM     30  C   UNL     1     -12.179  -1.790  14.710  0.00  0.00    +0.000 A 
ATOM     31  C   UNL     1     -12.223  -2.142  13.360  0.00  0.00    +0.000 A 
ATOM     32  C   UNL     1     -11.745  -3.391  12.948  0.00  0.00    +0.000 A 
ATOM     33 BR   UNL     1     -11.813  -3.853  11.117  0.00  0.00    +0.000 Br
ATOM     34  C   UNL     1     -11.229  -4.299  13.871  0.00  0.00    +0.000 A 
ATOM     35  C   UNL     1     -11.201  -3.942  15.218  0.00  0.00    +0.000 A 
ATOM     36  H   UNL     1     -12.543  -0.824  15.045  0.00  0.00    +0.000 HD
ATOM     37  H   UNL     1     -12.632  -1.441  12.638  0.00  0.00    +0.000 HD
ATOM     38  H   UNL     1     -10.855  -5.269  13.549  0.00  0.00    +0.000 HD
ENDBRANCH  25  35
ENDBRANCH   1  26
TORSDOF 3
ENDMDL
