REMARK  Name = 
REMARK  5 active torsions:
REMARK  status: ('A' for Active; 'I' for Inactive)
REMARK    1  A    between atoms: C_1  and  S_2
REMARK    2  A    between atoms: S_2  and  C_3
REMARK    3  A    between atoms: C_7  and  C_8
REMARK    4  A    between atoms: C_13  and  C_14
REMARK    5  A    between atoms: C_27  and  C_28
REMARK                            x       y       z     vdW  Elec       q    Type
REMARK                         _______ _______ _______ _____ _____    ______ ____
ROOT
ATOM      1  C   UNL     1      -1.393   1.149   1.453  0.00  0.00    +0.000 C 
ATOM      2  O   UNL     1      -0.535   1.356   0.600  0.00  0.00    +0.000 OA
ATOM      3  N   UNL     1      -2.052  -0.043   1.684  0.00  0.00    +0.000 N 
ATOM      4  C   UNL     1      -1.849  -1.154   0.912  0.00  0.00    +0.000 A 
ATOM      5  N   UNL     1      -0.959  -1.338  -0.016  0.00  0.00    +0.000 NA
ATOM      6  C   UNL     1      -1.117  -2.577  -0.637  0.00  0.00    +0.000 A 
ATOM      7  C   UNL     1      -2.174  -3.314  -0.144  0.00  0.00    +0.000 A 
ATOM      8  S   UNL     1      -2.921  -2.456   1.165  0.00  0.00    +0.000 S 
ATOM      9  H   UNL     1      -2.759  -0.107   2.409  0.00  0.00    +0.000 HD
ATOM     10  H   UNL     1      -2.541  -4.284  -0.444  0.00  0.00    +0.000 HD
ENDROOT
BRANCH   6  11
ATOM     11  C   UNL     1      -0.168  -2.946  -1.688  0.00  0.00    +0.000 A 
ATOM     12  C   UNL     1      -0.150  -4.126  -2.433  0.00  0.00    +0.000 A 
ATOM     13  C   UNL     1       0.880  -4.347  -3.379  0.00  0.00    +0.000 A 
ATOM     14  C   UNL     1       1.917  -3.409  -3.577  0.00  0.00    +0.000 A 
ATOM     15  C   UNL     1       1.877  -2.229  -2.850  0.00  0.00    +0.000 A 
ATOM     16  C   UNL     1       0.838  -2.010  -1.943  0.00  0.00    +0.000 A 
ATOM     17  C   UNL     1       2.856  -1.113  -2.999  0.00  0.00    +0.000 C 
ATOM     18  C   UNL     1       4.159  -1.443  -3.690  0.00  0.00    +0.000 C 
ATOM     19  C   UNL     1       4.198  -2.676  -4.584  0.00  0.00    +0.000 C 
ATOM     20  C   UNL     1       3.016  -3.657  -4.571  0.00  0.00    +0.000 C 
ATOM     21  H   UNL     1      -0.913  -4.889  -2.305  0.00  0.00    +0.000 HD
ATOM     22  H   UNL     1       0.869  -5.268  -3.962  0.00  0.00    +0.000 HD
ATOM     23  H   UNL     1       0.830  -1.060  -1.408  0.00  0.00    +0.000 HD
ATOM     24  H   UNL     1       2.353  -0.289  -3.520  0.00  0.00    +0.000 HD
ATOM     25  H   UNL     1       3.102  -0.743  -1.994  0.00  0.00    +0.000 HD
ATOM     26  H   UNL     1       4.937  -1.546  -2.921  0.00  0.00    +0.000 HD
ATOM     27  H   UNL     1       4.465  -0.562  -4.269  0.00  0.00    +0.000 HD
ATOM     28  H   UNL     1       5.112  -3.232  -4.330  0.00  0.00    +0.000 HD
ATOM     29  H   UNL     1       4.368  -2.347  -5.617  0.00  0.00    +0.000 HD
ATOM     30  H   UNL     1       3.423  -4.663  -4.398  0.00  0.00    +0.000 HD
ATOM     31  H   UNL     1       2.577  -3.673  -5.577  0.00  0.00    +0.000 HD
ENDBRANCH   6  11
BRANCH   1  36
ATOM     32  C   UNL     1      -2.543   4.480   3.971  0.00  0.00    +0.000 A 
ATOM     33  N   UNL     1      -3.024   3.225   4.242  0.00  0.00    +0.000 N 
ATOM     34  C   UNL     1      -2.751   2.108   3.497  0.00  0.00    +0.000 A 
ATOM     35  O   UNL     1      -3.247   1.018   3.770  0.00  0.00    +0.000 OA
ATOM     36  C   UNL     1      -1.828   2.284   2.341  0.00  0.00    +0.000 A 
ATOM     37  C   UNL     1      -1.377   3.531   2.084  0.00  0.00    +0.000 A 
ATOM     38  C   UNL     1      -1.742   4.681   2.908  0.00  0.00    +0.000 A 
ATOM     39  H   UNL     1      -3.656   3.116   5.026  0.00  0.00    +0.000 HD
ATOM     40  H   UNL     1      -0.711   3.719   1.241  0.00  0.00    +0.000 HD
BRANCH  38  41
ATOM     41  C   UNL     1      -1.237   5.971   2.547  0.00  0.00    +0.000 C 
ATOM     42  N   UNL     1      -0.800   7.000   2.254  0.00  0.00    +0.000 NA
ENDBRANCH  38  41
BRANCH  32  43
ATOM     43  S   UNL     1      -3.080   5.688   5.084  0.00  0.00    +0.000 S 
BRANCH  43  44
ATOM     44  C   UNL     1      -1.764   5.561   6.322  0.00  0.00    +0.000 C 
ATOM     45  H   UNL     1      -1.947   6.282   7.123  0.00  0.00    +0.000 HD
ATOM     46  H   UNL     1      -0.792   5.777   5.871  0.00  0.00    +0.000 HD
ATOM     47  H   UNL     1      -1.745   4.556   6.755  0.00  0.00    +0.000 HD
ENDBRANCH  43  44
ENDBRANCH  32  43
ENDBRANCH   1  36
TORSDOF 5
