REMARK  Name = 
REMARK  5 active torsions:
REMARK  status: ('A' for Active; 'I' for Inactive)
REMARK    1  A    between atoms: C_1  and  C_2
REMARK    2  A    between atoms: C_3  and  C_4
REMARK    3  A    between atoms: C_12  and  C_13
REMARK    4  A    between atoms: N_15  and  N_16
REMARK    5  A    between atoms: C_17  and  C_19
REMARK                            x       y       z     vdW  Elec       q    Type
REMARK                         _______ _______ _______ _____ _____    ______ ____
ROOT
ATOM      1  C   UNL     1      -1.841   3.001  -0.267  0.00  0.00    +0.000 A 
ATOM      2  C   UNL     1      -1.387   1.741  -0.294  0.00  0.00    +0.000 A 
ATOM      3  O   UNL     1      -0.055   1.372  -0.342  0.00  0.00    +0.000 OA
ATOM      4  C   UNL     1       0.914   2.339  -0.327  0.00  0.00    +0.000 A 
ATOM      5  C   UNL     1       2.262   1.945  -0.345  0.00  0.00    +0.000 A 
ATOM      6  C   UNL     1       3.260   2.936  -0.336  0.00  0.00    +0.000 A 
ATOM      7  C   UNL     1       2.923   4.293  -0.304  0.00  0.00    +0.000 A 
ATOM      8  C   UNL     1       1.584   4.676  -0.298  0.00  0.00    +0.000 A 
ATOM      9  C   UNL     1       0.584   3.697  -0.310  0.00  0.00    +0.000 A 
ATOM     10  C   UNL     1      -0.836   4.094  -0.304  0.00  0.00    +0.000 A 
ATOM     11  O   UNL     1      -1.161   5.276  -0.323  0.00  0.00    +0.000 OA
ATOM     12  H   UNL     1       4.312   2.651  -0.343  0.00  0.00    +0.000 HD
ATOM     13  H   UNL     1       3.705   5.051  -0.284  0.00  0.00    +0.000 HD
ATOM     14  H   UNL     1       1.319   5.734  -0.281  0.00  0.00    +0.000 HD
ENDROOT
BRANCH   2  15
ATOM     15  C   UNL     1      -2.267   0.563  -0.283  0.00  0.00    +0.000 A 
ATOM     16  C   UNL     1      -2.725   0.014  -1.487  0.00  0.00    +0.000 A 
ATOM     17  C   UNL     1      -3.545  -1.115  -1.476  0.00  0.00    +0.000 A 
ATOM     18  C   UNL     1      -3.895  -1.711  -0.265  0.00  0.00    +0.000 A 
ATOM     19  C   UNL     1      -3.425  -1.180   0.935  0.00  0.00    +0.000 A 
ATOM     20  C   UNL     1      -2.616  -0.042   0.927  0.00  0.00    +0.000 A 
ATOM     21  H   UNL     1      -2.436   0.452  -2.440  0.00  0.00    +0.000 HD
ATOM     22  H   UNL     1      -3.903  -1.537  -2.412  0.00  0.00    +0.000 HD
ATOM     23  H   UNL     1      -4.524  -2.597  -0.257  0.00  0.00    +0.000 HD
ATOM     24  H   UNL     1      -3.677  -1.660   1.877  0.00  0.00    +0.000 HD
ATOM     25  H   UNL     1      -2.249   0.353   1.873  0.00  0.00    +0.000 HD
ENDBRANCH   2  15
BRANCH   1  26
ATOM     26  C   UNL     1      -3.277   3.440  -0.198  0.00  0.00    +0.000 C 
ATOM     27  H   UNL     1      -3.977   2.605  -0.100  0.00  0.00    +0.000 HD
ATOM     28  H   UNL     1      -3.551   3.995  -1.101  0.00  0.00    +0.000 HD
ATOM     29  H   UNL     1      -3.435   4.091   0.669  0.00  0.00    +0.000 HD
ENDBRANCH   1  26
BRANCH   5  30
ATOM     30  C   UNL     1       2.710   0.517  -0.399  0.00  0.00    +0.000 C 
ATOM     31  O   UNL     1       3.775   0.217  -0.934  0.00  0.00    +0.000 OA
ATOM     32  N   UNL     1       1.886  -0.417   0.202  0.00  0.00    +0.000 N 
ATOM     33  H   UNL     1       1.020  -0.189   0.691  0.00  0.00    +0.000 HD
BRANCH  32  34
ATOM     34  N   UNL     1       2.245  -1.767   0.198  0.00  0.00    +0.000 N 
ATOM     35  C   UNL     1       1.414  -2.692   0.815  0.00  0.00    +0.000 C 
ATOM     36  O   UNL     1       0.376  -2.335   1.376  0.00  0.00    +0.000 OA
ATOM     37  H   UNL     1       3.023  -2.049  -0.397  0.00  0.00    +0.000 HD
BRANCH  35  38
ATOM     38  C   UNL     1       1.864  -4.080   0.756  0.00  0.00    +0.000 A 
ATOM     39  C   UNL     1       1.247  -5.205   1.282  0.00  0.00    +0.000 A 
ATOM     40  C   UNL     1       1.989  -6.400   1.033  0.00  0.00    +0.000 A 
ATOM     41  C   UNL     1       3.147  -6.151   0.333  0.00  0.00    +0.000 A 
ATOM     42  S   UNL     1       3.333  -4.498  -0.030  0.00  0.00    +0.000 S 
ATOM     43  H   UNL     1       0.303  -5.178   1.818  0.00  0.00    +0.000 HD
ATOM     44  H   UNL     1       1.690  -7.394   1.346  0.00  0.00    +0.000 HD
ATOM     45  H   UNL     1       3.897  -6.857   0.008  0.00  0.00    +0.000 HD
ENDBRANCH  35  38
ENDBRANCH  32  34
ENDBRANCH   5  30
TORSDOF 5
