
 OpenBabel01112423153D

 59 62  0  0  1  0  0  0  0  0999 V2000
    1.4336   -0.0586   -0.0126 C   0  0  0  0  0  0  0  0  0  0  0  0
    2.9176   -0.0948   -0.0152 C   0  0  0  0  0  0  0  0  0  0  0  0
    3.6167    1.0522    0.0053 N   0  0  0  0  0  0  0  0  0  0  0  0
    4.9038    0.6625   -0.0710 N   0  0  0  0  0  0  0  0  0  0  0  0
    5.9576    1.6446   -0.0442 C   0  0  0  0  0  0  0  0  0  0  0  0
    5.0376   -0.6925   -0.1231 C   0  0  0  0  0  0  0  0  0  0  0  0
    3.7727   -1.2246   -0.0544 C   0  0  0  0  0  0  0  0  0  0  0  0
    3.5433   -2.7010   -0.0492 C   0  0  1  0  0  0  0  0  0  0  0  0
    3.0406   -3.0931   -1.4329 C   0  0  0  0  0  0  0  0  0  0  0  0
    3.7744   -2.8507   -2.6005 C   0  0  0  0  0  0  0  0  0  0  0  0
    3.3575   -3.3485   -3.8378 C   0  0  0  0  0  0  0  0  0  0  0  0
    2.1818   -4.0996   -3.9703 C   0  0  0  0  0  0  0  0  0  0  0  0
    1.7284   -4.6810   -5.3199 C   0  0  0  0  0  0  0  0  0  0  0  0
    2.6769   -4.3288   -6.4904 C   0  0  0  0  0  0  0  0  0  0  0  0
    1.6643   -6.2212   -5.2344 C   0  0  0  0  0  0  0  0  0  0  0  0
    0.3328   -4.1363   -5.6859 C   0  0  0  0  0  0  0  0  0  0  0  0
    1.4302   -4.3158   -2.8013 C   0  0  0  0  0  0  0  0  0  0  0  0
    1.8548   -3.8307   -1.5546 C   0  0  0  0  0  0  0  0  0  0  0  0
    4.8600   -3.4468    0.3150 C   0  0  2  0  0  0  0  0  0  0  0  0
    5.1019   -3.4675    1.7685 N   0  0  0  0  0  0  0  0  0  0  0  0
    4.5561   -4.4323    2.5792 C   0  0  0  0  0  0  0  0  0  0  0  0
    3.8402   -5.3323    2.1546 O   0  0  0  0  0  0  0  0  0  0  0  0
    4.8796   -4.3378    4.0273 C   0  0  0  0  0  0  0  0  0  0  0  0
    5.0972   -3.1061    4.6607 C   0  0  0  0  0  0  0  0  0  0  0  0
    5.3365   -3.0632    6.0367 C   0  0  0  0  0  0  0  0  0  0  0  0
    5.3580   -4.2429    6.7809 C   0  0  0  0  0  0  0  0  0  0  0  0
    5.1480   -5.4702    6.1526 C   0  0  0  0  0  0  0  0  0  0  0  0
    4.9073   -5.5181    4.7786 C   0  0  0  0  0  0  0  0  0  0  0  0
    6.1251   -2.7934   -0.3003 C   0  0  0  0  0  0  0  0  0  0  0  0
    7.1142   -3.4402   -0.6452 O   0  0  0  0  0  0  0  0  0  0  0  0
    6.1953   -1.4132   -0.2671 N   0  0  0  0  0  0  0  0  0  0  0  0
    1.0591    0.9708    0.0216 H   0  0  0  0  0  0  0  0  0  0  0  0
    1.0314   -0.5936    0.8529 H   0  0  0  0  0  0  0  0  0  0  0  0
    1.0417   -0.5231   -0.9232 H   0  0  0  0  0  0  0  0  0  0  0  0
    5.5266    2.6479   -0.0097 H   0  0  0  0  0  0  0  0  0  0  0  0
    6.5609    1.5263   -0.9465 H   0  0  0  0  0  0  0  0  0  0  0  0
    6.5657    1.4709    0.8487 H   0  0  0  0  0  0  0  0  0  0  0  0
    2.7723   -2.9320    0.6981 H   0  0  0  0  0  0  0  0  0  0  0  0
    4.7034   -2.2870   -2.5770 H   0  0  0  0  0  0  0  0  0  0  0  0
    3.9987   -3.1412   -4.6895 H   0  0  0  0  0  0  0  0  0  0  0  0
    3.6834   -4.7332   -6.3287 H   0  0  0  0  0  0  0  0  0  0  0  0
    2.7635   -3.2440   -6.6250 H   0  0  0  0  0  0  0  0  0  0  0  0
    2.3120   -4.7430   -7.4371 H   0  0  0  0  0  0  0  0  0  0  0  0
    2.6475   -6.6462   -5.0001 H   0  0  0  0  0  0  0  0  0  0  0  0
    1.3339   -6.6541   -6.1861 H   0  0  0  0  0  0  0  0  0  0  0  0
    0.9651   -6.5659   -4.4647 H   0  0  0  0  0  0  0  0  0  0  0  0
    0.3419   -3.0422   -5.7534 H   0  0  0  0  0  0  0  0  0  0  0  0
   -0.4279   -4.4164   -4.9494 H   0  0  0  0  0  0  0  0  0  0  0  0
    0.0006   -4.5270   -6.6551 H   0  0  0  0  0  0  0  0  0  0  0  0
    0.5085   -4.8937   -2.8365 H   0  0  0  0  0  0  0  0  0  0  0  0
    1.2553   -4.0624   -0.6765 H   0  0  0  0  0  0  0  0  0  0  0  0
    4.8097   -4.4852   -0.0364 H   0  0  0  0  0  0  0  0  0  0  0  0
    5.7604   -2.7981    2.1453 H   0  0  0  0  0  0  0  0  0  0  0  0
    5.0456   -2.1714    4.1113 H   0  0  0  0  0  0  0  0  0  0  0  0
    5.4872   -2.1075    6.5336 H   0  0  0  0  0  0  0  0  0  0  0  0
    5.5265   -4.2056    7.8547 H   0  0  0  0  0  0  0  0  0  0  0  0
    5.1595   -6.3891    6.7334 H   0  0  0  0  0  0  0  0  0  0  0  0
    4.7345   -6.4775    4.2942 H   0  0  0  0  0  0  0  0  0  0  0  0
    7.0693   -0.9826   -0.5365 H   0  0  0  0  0  0  0  0  0  0  0  0
  1  2  1  0  0  0  0
  1 32  1  0  0  0  0
  1 33  1  0  0  0  0
  1 34  1  0  0  0  0
  2  3  2  0  0  0  0
  2  7  1  0  0  0  0
  3  4  1  0  0  0  0
  4  5  1  0  0  0  0
  4  6  1  0  0  0  0
  5 35  1  0  0  0  0
  5 36  1  0  0  0  0
  5 37  1  0  0  0  0
  6  7  2  0  0  0  0
  6 31  1  0  0  0  0
  7  8  1  0  0  0  0
  8 19  1  0  0  0  0
  8  9  1  0  0  0  0
  8 38  1  1  0  0  0
  9 10  1  0  0  0  0
  9 18  2  0  0  0  0
 10 11  2  0  0  0  0
 10 39  1  0  0  0  0
 11 12  1  0  0  0  0
 11 40  1  0  0  0  0
 12 13  1  0  0  0  0
 12 17  2  0  0  0  0
 13 14  1  0  0  0  0
 13 15  1  0  0  0  0
 13 16  1  0  0  0  0
 14 41  1  0  0  0  0
 14 42  1  0  0  0  0
 14 43  1  0  0  0  0
 15 44  1  0  0  0  0
 15 45  1  0  0  0  0
 15 46  1  0  0  0  0
 16 47  1  0  0  0  0
 16 48  1  0  0  0  0
 16 49  1  0  0  0  0
 17 18  1  0  0  0  0
 17 50  1  0  0  0  0
 18 51  1  0  0  0  0
 19 20  1  0  0  0  0
 19 29  1  0  0  0  0
 19 52  1  6  0  0  0
 20 21  1  0  0  0  0
 20 53  1  0  0  0  0
 21 22  2  0  0  0  0
 21 23  1  0  0  0  0
 23 24  1  0  0  0  0
 23 28  2  0  0  0  0
 24 25  2  0  0  0  0
 24 54  1  0  0  0  0
 25 26  1  0  0  0  0
 25 55  1  0  0  0  0
 26 27  2  0  0  0  0
 26 56  1  0  0  0  0
 27 28  1  0  0  0  0
 27 57  1  0  0  0  0
 28 58  1  0  0  0  0
 29 30  2  0  0  0  0
 29 31  1  0  0  0  0
 31 59  1  0  0  0  0
M  END
$$$$
