MODEL 1
REMARK VINA RESULT:    -8.937      0.000      0.000
REMARK INTER + INTRA:         -12.207
REMARK INTER:                 -11.550
REMARK INTRA:                  -0.657
REMARK UNBOUND:                -0.657
REMARK  Name = 
REMARK  6 active torsions:
REMARK  status: ('A' for Active; 'I' for Inactive)
REMARK    1  A    between atoms: C_1  and  C_2
REMARK    2  A    between atoms: C_2  and  O_3
REMARK    3  A    between atoms: C_2  and  C_16
REMARK    4  A    between atoms: O_3  and  C_4
REMARK    5  A    between atoms: C_4  and  C_6
REMARK    6  A    between atoms: C_12  and  N_13
REMARK                            x       y       z     vdW  Elec       q    Type
REMARK                         _______ _______ _______ _____ _____    ______ ____
ROOT
ATOM      1  C   UNL     1      -9.720  -9.265  16.216  0.00  0.00    +0.000 C 
ATOM      2  H   UNL     1      -9.363  -9.274  17.250  0.00  0.00    +0.000 HD
ENDROOT
BRANCH   1   3
ATOM      3  C   UNL     1      -9.239 -10.559  15.478  0.00  0.00    +0.000 C 
ATOM      4  O   UNL     1      -9.384 -10.642  14.255  0.00  0.00    +0.000 OA
ATOM      5  N   UNL     1      -8.606 -11.591  16.192  0.00  0.00    +0.000 N 
ATOM      6  C   UNL     1      -7.985 -12.682  15.423  0.00  0.00    +0.000 C 
ATOM      7  C   UNL     1      -8.849 -13.944  15.388  0.00  0.00    +0.000 C 
ATOM      8  C   UNL     1      -8.817 -14.778  16.670  0.00  0.00    +0.000 C 
ATOM      9  C   UNL     1      -9.218 -14.021  17.931  0.00  0.00    +0.000 C 
ATOM     10  C   UNL     1      -8.194 -12.956  18.315  0.00  0.00    +0.000 C 
ATOM     11  C   UNL     1      -8.471 -11.607  17.647  0.00  0.00    +0.000 C 
ATOM     12  H   UNL     1      -6.983 -12.888  15.819  0.00  0.00    +0.000 HD
ATOM     13  H   UNL     1      -7.831 -12.354  14.389  0.00  0.00    +0.000 HD
ATOM     14  H   UNL     1      -8.486 -14.587  14.576  0.00  0.00    +0.000 HD
ATOM     15  H   UNL     1      -9.885 -13.683  15.146  0.00  0.00    +0.000 HD
ATOM     16  H   UNL     1      -7.814 -15.202  16.805  0.00  0.00    +0.000 HD
ATOM     17  H   UNL     1      -9.495 -15.631  16.544  0.00  0.00    +0.000 HD
ATOM     18  H   UNL     1      -9.293 -14.746  18.751  0.00  0.00    +0.000 HD
ATOM     19  H   UNL     1     -10.215 -13.579  17.813  0.00  0.00    +0.000 HD
ATOM     20  H   UNL     1      -7.173 -13.307  18.114  0.00  0.00    +0.000 HD
ATOM     21  H   UNL     1      -8.248 -12.801  19.400  0.00  0.00    +0.000 HD
ATOM     22  H   UNL     1      -7.673 -10.906  17.915  0.00  0.00    +0.000 HD
ATOM     23  H   UNL     1      -9.406 -11.226  18.064  0.00  0.00    +0.000 HD
ENDBRANCH   1   3
BRANCH   1  24
ATOM     24  C   UNL     1     -11.254  -9.111  16.204  0.00  0.00    +0.000 C 
ATOM     25  H   UNL     1     -11.595  -8.442  15.404  0.00  0.00    +0.000 HD
ATOM     26  H   UNL     1     -11.635  -8.704  17.148  0.00  0.00    +0.000 HD
ATOM     27  H   UNL     1     -11.767 -10.069  16.056  0.00  0.00    +0.000 HD
ENDBRANCH   1  24
BRANCH   1  28
ATOM     28  O   UNL     1      -9.143  -8.131  15.470  0.00  0.00    +0.000 OA
BRANCH  28  29
ATOM     29  C   UNL     1      -8.752  -7.025  16.167  0.00  0.00    +0.000 C 
ATOM     30  O   UNL     1      -7.735  -6.933  16.809  0.00  0.00    +0.000 OA
BRANCH  29  31
ATOM     31  C   UNL     1      -9.721  -5.871  15.958  0.00  0.00    +0.000 A 
ATOM     32  N   UNL     1      -9.628  -5.183  14.785  0.00  0.00    +0.000 NA
ATOM     33  C   UNL     1     -10.411  -4.088  14.656  0.00  0.00    +0.000 A 
ATOM     34 CL   UNL     1     -10.121  -3.223  13.191  0.00  0.00    +0.000 Cl
ATOM     35  C   UNL     1     -11.347  -3.651  15.604  0.00  0.00    +0.000 A 
ATOM     36 CL   UNL     1     -12.294  -2.216  15.384  0.00  0.00    +0.000 Cl
ATOM     37  C   UNL     1     -11.484  -4.404  16.782  0.00  0.00    +0.000 A 
ATOM     38  C   UNL     1     -10.623  -5.513  16.975  0.00  0.00    +0.000 A 
ATOM     39 CL   UNL     1     -10.689  -6.328  18.507  0.00  0.00    +0.000 Cl
BRANCH  37  40
ATOM     40  N   UNL     1     -12.273  -3.912  17.857  0.00  0.00    +0.000 N 
ATOM     41  H   UNL     1     -13.235  -4.245  17.872  0.00  0.00    +0.000 HD
ATOM     42  H   UNL     1     -11.817  -3.942  18.768  0.00  0.00    +0.000 HD
ENDBRANCH  37  40
ENDBRANCH  29  31
ENDBRANCH  28  29
ENDBRANCH   1  28
TORSDOF 6
ENDMDL
MODEL 2
REMARK VINA RESULT:    -8.936      2.169      3.008
REMARK INTER + INTRA:         -12.206
REMARK INTER:                 -12.327
REMARK INTRA:                   0.121
REMARK UNBOUND:                -0.657
REMARK  Name = 
REMARK  6 active torsions:
REMARK  status: ('A' for Active; 'I' for Inactive)
REMARK    1  A    between atoms: C_1  and  C_2
REMARK    2  A    between atoms: C_2  and  O_3
REMARK    3  A    between atoms: C_2  and  C_16
REMARK    4  A    between atoms: O_3  and  C_4
REMARK    5  A    between atoms: C_4  and  C_6
REMARK    6  A    between atoms: C_12  and  N_13
REMARK                            x       y       z     vdW  Elec       q    Type
REMARK                         _______ _______ _______ _____ _____    ______ ____
ROOT
ATOM      1  C   UNL     1     -10.014  -9.561  16.853  0.00  0.00    +0.000 C 
ATOM      2  H   UNL     1     -10.387 -10.037  17.763  0.00  0.00    +0.000 HD
ENDROOT
BRANCH   1   3
ATOM      3  C   UNL     1      -9.429 -10.645  15.888  0.00  0.00    +0.000 C 
ATOM      4  O   UNL     1      -9.526 -10.481  14.668  0.00  0.00    +0.000 OA
ATOM      5  N   UNL     1      -8.757 -11.768  16.404  0.00  0.00    +0.000 N 
ATOM      6  C   UNL     1      -8.044 -12.641  15.457  0.00  0.00    +0.000 C 
ATOM      7  C   UNL     1      -8.826 -13.913  15.124  0.00  0.00    +0.000 C 
ATOM      8  C   UNL     1      -8.786 -14.992  16.208  0.00  0.00    +0.000 C 
ATOM      9  C   UNL     1      -9.277 -14.535  17.577  0.00  0.00    +0.000 C 
ATOM     10  C   UNL     1      -8.335 -13.520  18.218  0.00  0.00    +0.000 C 
ATOM     11  C   UNL     1      -8.672 -12.078  17.829  0.00  0.00    +0.000 C 
ATOM     12  H   UNL     1      -7.046 -12.870  15.848  0.00  0.00    +0.000 HD
ATOM     13  H   UNL     1      -7.875 -12.098  14.520  0.00  0.00    +0.000 HD
ATOM     14  H   UNL     1      -8.396 -14.352  14.215  0.00  0.00    +0.000 HD
ATOM     15  H   UNL     1      -9.868 -13.663  14.893  0.00  0.00    +0.000 HD
ATOM     16  H   UNL     1      -7.764 -15.380  16.299  0.00  0.00    +0.000 HD
ATOM     17  H   UNL     1      -9.405 -15.835  15.878  0.00  0.00    +0.000 HD
ATOM     18  H   UNL     1      -9.335 -15.417  18.227  0.00  0.00    +0.000 HD
ATOM     19  H   UNL     1     -10.294 -14.133  17.506  0.00  0.00    +0.000 HD
ATOM     20  H   UNL     1      -7.287 -13.766  17.997  0.00  0.00    +0.000 HD
ATOM     21  H   UNL     1      -8.435 -13.596  19.308  0.00  0.00    +0.000 HD
ATOM     22  H   UNL     1      -7.928 -11.406  18.272  0.00  0.00    +0.000 HD
ATOM     23  H   UNL     1      -9.642 -11.843  18.271  0.00  0.00    +0.000 HD
ENDBRANCH   1   3
BRANCH   1  24
ATOM     24  C   UNL     1     -11.145  -8.739  16.203  0.00  0.00    +0.000 C 
ATOM     25  H   UNL     1     -10.983  -7.658  16.307  0.00  0.00    +0.000 HD
ATOM     26  H   UNL     1     -12.123  -8.962  16.646  0.00  0.00    +0.000 HD
ATOM     27  H   UNL     1     -11.244  -8.941  15.130  0.00  0.00    +0.000 HD
ENDBRANCH   1  24
BRANCH   1  28
ATOM     28  O   UNL     1      -8.902  -8.642  17.157  0.00  0.00    +0.000 OA
BRANCH  28  29
ATOM     29  C   UNL     1      -8.870  -7.428  16.535  0.00  0.00    +0.000 C 
ATOM     30  O   UNL     1      -9.014  -7.253  15.349  0.00  0.00    +0.000 OA
BRANCH  29  31
ATOM     31  C   UNL     1      -8.723  -6.296  17.539  0.00  0.00    +0.000 A 
ATOM     32  N   UNL     1      -7.555  -6.230  18.238  0.00  0.00    +0.000 NA
ATOM     33  C   UNL     1      -7.477  -5.294  19.210  0.00  0.00    +0.000 A 
ATOM     34 CL   UNL     1      -6.010  -5.383  20.114  0.00  0.00    +0.000 Cl
ATOM     35  C   UNL     1      -8.475  -4.355  19.506  0.00  0.00    +0.000 A 
ATOM     36 CL   UNL     1      -8.319  -3.203  20.792  0.00  0.00    +0.000 Cl
ATOM     37  C   UNL     1      -9.650  -4.386  18.736  0.00  0.00    +0.000 A 
ATOM     38  C   UNL     1      -9.787  -5.404  17.760  0.00  0.00    +0.000 A 
ATOM     39 CL   UNL     1     -11.311  -5.534  16.937  0.00  0.00    +0.000 Cl
BRANCH  37  40
ATOM     40  N   UNL     1     -10.768  -3.591  19.105  0.00  0.00    +0.000 N 
ATOM     41  H   UNL     1     -11.206  -3.848  19.988  0.00  0.00    +0.000 HD
ATOM     42  H   UNL     1     -10.632  -2.587  18.996  0.00  0.00    +0.000 HD
ENDBRANCH  37  40
ENDBRANCH  29  31
ENDBRANCH  28  29
ENDBRANCH   1  28
TORSDOF 6
ENDMDL
MODEL 3
REMARK VINA RESULT:    -8.615      3.523      4.634
REMARK INTER + INTRA:         -11.791
REMARK INTER:                 -12.039
REMARK INTRA:                   0.248
REMARK UNBOUND:                -0.657
REMARK  Name = 
REMARK  6 active torsions:
REMARK  status: ('A' for Active; 'I' for Inactive)
REMARK    1  A    between atoms: C_1  and  C_2
REMARK    2  A    between atoms: C_2  and  O_3
REMARK    3  A    between atoms: C_2  and  C_16
REMARK    4  A    between atoms: O_3  and  C_4
REMARK    5  A    between atoms: C_4  and  C_6
REMARK    6  A    between atoms: C_12  and  N_13
REMARK                            x       y       z     vdW  Elec       q    Type
REMARK                         _______ _______ _______ _____ _____    ______ ____
ROOT
ATOM      1  C   UNL     1      -9.003  -8.261  18.771  0.00  0.00    +0.000 C 
ATOM      2  H   UNL     1      -8.504  -7.898  19.674  0.00  0.00    +0.000 HD
ENDROOT
BRANCH   1   3
ATOM      3  C   UNL     1      -8.881  -9.820  18.688  0.00  0.00    +0.000 C 
ATOM      4  O   UNL     1      -8.448 -10.441  19.663  0.00  0.00    +0.000 OA
ATOM      5  N   UNL     1      -9.305 -10.506  17.537  0.00  0.00    +0.000 N 
ATOM      6  C   UNL     1      -9.369 -11.976  17.594  0.00  0.00    +0.000 C 
ATOM      7  C   UNL     1      -8.171 -12.645  16.917  0.00  0.00    +0.000 C 
ATOM      8  C   UNL     1      -8.228 -12.664  15.389  0.00  0.00    +0.000 C 
ATOM      9  C   UNL     1      -8.372 -11.291  14.741  0.00  0.00    +0.000 C 
ATOM     10  C   UNL     1      -9.734 -10.662  15.021  0.00  0.00    +0.000 C 
ATOM     11  C   UNL     1      -9.749  -9.842  16.314  0.00  0.00    +0.000 C 
ATOM     12  H   UNL     1     -10.319 -12.320  17.169  0.00  0.00    +0.000 HD
ATOM     13  H   UNL     1      -9.383 -12.297  18.641  0.00  0.00    +0.000 HD
ATOM     14  H   UNL     1      -8.127 -13.689  17.251  0.00  0.00    +0.000 HD
ATOM     15  H   UNL     1      -7.240 -12.168  17.244  0.00  0.00    +0.000 HD
ATOM     16  H   UNL     1      -9.053 -13.308  15.061  0.00  0.00    +0.000 HD
ATOM     17  H   UNL     1      -7.308 -13.131  15.015  0.00  0.00    +0.000 HD
ATOM     18  H   UNL     1      -8.261 -11.415  13.657  0.00  0.00    +0.000 HD
ATOM     19  H   UNL     1      -7.562 -10.627  15.064  0.00  0.00    +0.000 HD
ATOM     20  H   UNL     1     -10.525 -11.425  15.015  0.00  0.00    +0.000 HD
ATOM     21  H   UNL     1      -9.975  -9.978  14.197  0.00  0.00    +0.000 HD
ATOM     22  H   UNL     1     -10.764  -9.467  16.487  0.00  0.00    +0.000 HD
ATOM     23  H   UNL     1      -9.096  -8.981  16.156  0.00  0.00    +0.000 HD
ENDBRANCH   1   3
BRANCH   1  24
ATOM     24  C   UNL     1     -10.467  -7.780  18.765  0.00  0.00    +0.000 C 
ATOM     25  H   UNL     1     -11.079  -8.312  19.505  0.00  0.00    +0.000 HD
ATOM     26  H   UNL     1     -10.945  -7.926  17.789  0.00  0.00    +0.000 HD
ATOM     27  H   UNL     1     -10.556  -6.711  18.992  0.00  0.00    +0.000 HD
ENDBRANCH   1  24
BRANCH   1  28
ATOM     28  O   UNL     1      -8.346  -7.736  17.560  0.00  0.00    +0.000 OA
BRANCH  28  29
ATOM     29  C   UNL     1      -8.361  -6.389  17.343  0.00  0.00    +0.000 C 
ATOM     30  O   UNL     1      -8.888  -5.843  16.403  0.00  0.00    +0.000 OA
BRANCH  29  31
ATOM     31  C   UNL     1      -7.707  -5.637  18.491  0.00  0.00    +0.000 A 
ATOM     32  N   UNL     1      -6.405  -5.930  18.766  0.00  0.00    +0.000 NA
ATOM     33  C   UNL     1      -5.865  -5.345  19.860  0.00  0.00    +0.000 A 
ATOM     34 CL   UNL     1      -4.259  -5.884  20.188  0.00  0.00    +0.000 Cl
ATOM     35  C   UNL     1      -6.521  -4.420  20.684  0.00  0.00    +0.000 A 
ATOM     36 CL   UNL     1      -5.777  -3.736  22.092  0.00  0.00    +0.000 Cl
ATOM     37  C   UNL     1      -7.842  -4.073  20.354  0.00  0.00    +0.000 A 
ATOM     38  C   UNL     1      -8.455  -4.726  19.257  0.00  0.00    +0.000 A 
ATOM     39 CL   UNL     1     -10.139  -4.411  18.968  0.00  0.00    +0.000 Cl
BRANCH  37  40
ATOM     40  N   UNL     1      -8.620  -3.291  21.250  0.00  0.00    +0.000 N 
ATOM     41  H   UNL     1      -9.628  -3.359  21.117  0.00  0.00    +0.000 HD
ATOM     42  H   UNL     1      -8.333  -3.349  22.227  0.00  0.00    +0.000 HD
ENDBRANCH  37  40
ENDBRANCH  29  31
ENDBRANCH  28  29
ENDBRANCH   1  28
TORSDOF 6
ENDMDL
MODEL 4
REMARK VINA RESULT:    -8.481      4.536      8.391
REMARK INTER + INTRA:         -11.618
REMARK INTER:                 -11.133
REMARK INTRA:                  -0.485
REMARK UNBOUND:                -0.657
REMARK  Name = 
REMARK  6 active torsions:
REMARK  status: ('A' for Active; 'I' for Inactive)
REMARK    1  A    between atoms: C_1  and  C_2
REMARK    2  A    between atoms: C_2  and  O_3
REMARK    3  A    between atoms: C_2  and  C_16
REMARK    4  A    between atoms: O_3  and  C_4
REMARK    5  A    between atoms: C_4  and  C_6
REMARK    6  A    between atoms: C_12  and  N_13
REMARK                            x       y       z     vdW  Elec       q    Type
REMARK                         _______ _______ _______ _____ _____    ______ ____
ROOT
ATOM      1  C   UNL     1      -7.817  -5.688  19.407  0.00  0.00    +0.000 C 
ATOM      2  H   UNL     1      -7.973  -6.329  20.279  0.00  0.00    +0.000 HD
ENDROOT
BRANCH   1   3
ATOM      3  C   UNL     1      -8.543  -4.317  19.620  0.00  0.00    +0.000 C 
ATOM      4  O   UNL     1      -9.095  -3.773  18.659  0.00  0.00    +0.000 OA
ATOM      5  N   UNL     1      -8.607  -3.738  20.899  0.00  0.00    +0.000 N 
ATOM      6  C   UNL     1      -9.479  -2.566  21.083  0.00  0.00    +0.000 C 
ATOM      7  C   UNL     1      -8.701  -1.249  21.097  0.00  0.00    +0.000 C 
ATOM      8  C   UNL     1      -7.964  -0.954  22.405  0.00  0.00    +0.000 C 
ATOM      9  C   UNL     1      -6.980  -2.035  22.838  0.00  0.00    +0.000 C 
ATOM     10  C   UNL     1      -7.685  -3.325  23.248  0.00  0.00    +0.000 C 
ATOM     11  C   UNL     1      -7.912  -4.273  22.067  0.00  0.00    +0.000 C 
ATOM     12  H   UNL     1     -10.078  -2.692  21.993  0.00  0.00    +0.000 HD
ATOM     13  H   UNL     1     -10.200  -2.519  20.260  0.00  0.00    +0.000 HD
ATOM     14  H   UNL     1      -9.411  -0.429  20.935  0.00  0.00    +0.000 HD
ATOM     15  H   UNL     1      -7.991  -1.223  20.262  0.00  0.00    +0.000 HD
ATOM     16  H   UNL     1      -8.695  -0.786  23.206  0.00  0.00    +0.000 HD
ATOM     17  H   UNL     1      -7.417  -0.010  22.287  0.00  0.00    +0.000 HD
ATOM     18  H   UNL     1      -6.417  -1.655  23.699  0.00  0.00    +0.000 HD
ATOM     19  H   UNL     1      -6.247  -2.226  22.046  0.00  0.00    +0.000 HD
ATOM     20  H   UNL     1      -8.622  -3.106  23.779  0.00  0.00    +0.000 HD
ATOM     21  H   UNL     1      -7.049  -3.850  23.972  0.00  0.00    +0.000 HD
ATOM     22  H   UNL     1      -8.470  -5.149  22.415  0.00  0.00    +0.000 HD
ATOM     23  H   UNL     1      -6.929  -4.612  21.734  0.00  0.00    +0.000 HD
ENDBRANCH   1   3
BRANCH   1  24
ATOM     24  C   UNL     1      -6.305  -5.524  19.154  0.00  0.00    +0.000 C 
ATOM     25  H   UNL     1      -5.748  -6.443  19.376  0.00  0.00    +0.000 HD
ATOM     26  H   UNL     1      -5.868  -4.727  19.768  0.00  0.00    +0.000 HD
ATOM     27  H   UNL     1      -6.082  -5.264  18.113  0.00  0.00    +0.000 HD
ENDBRANCH   1  24
BRANCH   1  28
ATOM     28  O   UNL     1      -8.418  -6.285  18.200  0.00  0.00    +0.000 OA
BRANCH  28  29
ATOM     29  C   UNL     1      -9.496  -7.108  18.348  0.00  0.00    +0.000 C 
ATOM     30  O   UNL     1     -10.564  -6.778  18.803  0.00  0.00    +0.000 OA
BRANCH  29  31
ATOM     31  C   UNL     1      -9.217  -8.490  17.778  0.00  0.00    +0.000 A 
ATOM     32  N   UNL     1      -9.371  -8.653  16.434  0.00  0.00    +0.000 NA
ATOM     33  C   UNL     1      -9.235  -9.909  15.951  0.00  0.00    +0.000 A 
ATOM     34 CL   UNL     1      -9.577 -10.021  14.263  0.00  0.00    +0.000 Cl
ATOM     35  C   UNL     1      -8.889 -11.032  16.715  0.00  0.00    +0.000 A 
ATOM     36 CL   UNL     1      -8.767 -12.621  16.033  0.00  0.00    +0.000 Cl
ATOM     37  C   UNL     1      -8.666 -10.843  18.089  0.00  0.00    +0.000 A 
ATOM     38  C   UNL     1      -8.873  -9.552  18.633  0.00  0.00    +0.000 A 
ATOM     39 CL   UNL     1      -8.760  -9.374  20.357  0.00  0.00    +0.000 Cl
BRANCH  37  40
ATOM     40  N   UNL     1      -8.498 -11.965  18.946  0.00  0.00    +0.000 N 
ATOM     41  H   UNL     1      -8.686 -11.785  19.931  0.00  0.00    +0.000 HD
ATOM     42  H   UNL     1      -8.914 -12.829  18.603  0.00  0.00    +0.000 HD
ENDBRANCH  37  40
ENDBRANCH  29  31
ENDBRANCH  28  29
ENDBRANCH   1  28
TORSDOF 6
ENDMDL
MODEL 5
REMARK VINA RESULT:    -8.454      2.452      2.808
REMARK INTER + INTRA:         -11.582
REMARK INTER:                 -11.055
REMARK INTRA:                  -0.527
REMARK UNBOUND:                -0.657
REMARK  Name = 
REMARK  6 active torsions:
REMARK  status: ('A' for Active; 'I' for Inactive)
REMARK    1  A    between atoms: C_1  and  C_2
REMARK    2  A    between atoms: C_2  and  O_3
REMARK    3  A    between atoms: C_2  and  C_16
REMARK    4  A    between atoms: O_3  and  C_4
REMARK    5  A    between atoms: C_4  and  C_6
REMARK    6  A    between atoms: C_12  and  N_13
REMARK                            x       y       z     vdW  Elec       q    Type
REMARK                         _______ _______ _______ _____ _____    ______ ____
ROOT
ATOM      1  C   UNL     1     -10.285  -9.568  16.840  0.00  0.00    +0.000 C 
ATOM      2  H   UNL     1     -10.717 -10.104  17.690  0.00  0.00    +0.000 HD
ENDROOT
BRANCH   1   3
ATOM      3  C   UNL     1      -9.591 -10.584  15.871  0.00  0.00    +0.000 C 
ATOM      4  O   UNL     1      -9.636 -10.380  14.654  0.00  0.00    +0.000 OA
ATOM      5  N   UNL     1      -8.886 -11.686  16.384  0.00  0.00    +0.000 N 
ATOM      6  C   UNL     1      -8.077 -12.484  15.446  0.00  0.00    +0.000 C 
ATOM      7  C   UNL     1      -8.768 -13.783  15.028  0.00  0.00    +0.000 C 
ATOM      8  C   UNL     1      -8.723 -14.897  16.075  0.00  0.00    +0.000 C 
ATOM      9  C   UNL     1      -9.308 -14.519  17.432  0.00  0.00    +0.000 C 
ATOM     10  C   UNL     1      -8.459 -13.479  18.156  0.00  0.00    +0.000 C 
ATOM     11  C   UNL     1      -8.856 -12.044  17.799  0.00  0.00    +0.000 C 
ATOM     12  H   UNL     1      -7.089 -12.672  15.882  0.00  0.00    +0.000 HD
ATOM     13  H   UNL     1      -7.891 -11.898  14.539  0.00  0.00    +0.000 HD
ATOM     14  H   UNL     1      -8.268 -14.164  14.130  0.00  0.00    +0.000 HD
ATOM     15  H   UNL     1      -9.809 -13.582  14.751  0.00  0.00    +0.000 HD
ATOM     16  H   UNL     1      -7.687 -15.232  16.208  0.00  0.00    +0.000 HD
ATOM     17  H   UNL     1      -9.277 -15.760  15.684  0.00  0.00    +0.000 HD
ATOM     18  H   UNL     1      -9.350 -15.427  18.047  0.00  0.00    +0.000 HD
ATOM     19  H   UNL     1     -10.342 -14.170  17.320  0.00  0.00    +0.000 HD
ATOM     20  H   UNL     1      -7.389 -13.660  17.983  0.00  0.00    +0.000 HD
ATOM     21  H   UNL     1      -8.611 -13.601  19.236  0.00  0.00    +0.000 HD
ATOM     22  H   UNL     1      -8.175 -11.349  18.304  0.00  0.00    +0.000 HD
ATOM     23  H   UNL     1      -9.859 -11.879  18.198  0.00  0.00    +0.000 HD
ENDBRANCH   1   3
BRANCH   1  24
ATOM     24  C   UNL     1     -11.385  -8.742  16.143  0.00  0.00    +0.000 C 
ATOM     25  H   UNL     1     -12.243  -9.361  15.850  0.00  0.00    +0.000 HD
ATOM     26  H   UNL     1     -11.017  -8.250  15.235  0.00  0.00    +0.000 HD
ATOM     27  H   UNL     1     -11.776  -7.944  16.786  0.00  0.00    +0.000 HD
ENDBRANCH   1  24
BRANCH   1  28
ATOM     28  O   UNL     1      -9.230  -8.640  17.283  0.00  0.00    +0.000 OA
BRANCH  28  29
ATOM     29  C   UNL     1      -9.209  -8.252  18.591  0.00  0.00    +0.000 C 
ATOM     30  O   UNL     1      -9.042  -8.991  19.531  0.00  0.00    +0.000 OA
BRANCH  29  31
ATOM     31  C   UNL     1      -9.332  -6.742  18.722  0.00  0.00    +0.000 A 
ATOM     32  N   UNL     1     -10.442  -6.158  18.189  0.00  0.00    +0.000 NA
ATOM     33  C   UNL     1     -10.488  -4.807  18.206  0.00  0.00    +0.000 A 
ATOM     34 CL   UNL     1     -11.871  -4.171  17.393  0.00  0.00    +0.000 Cl
ATOM     35  C   UNL     1      -9.518  -3.975  18.781  0.00  0.00    +0.000 A 
ATOM     36 CL   UNL     1      -9.627  -2.245  18.734  0.00  0.00    +0.000 Cl
ATOM     37  C   UNL     1      -8.409  -4.588  19.388  0.00  0.00    +0.000 A 
ATOM     38  C   UNL     1      -8.300  -5.999  19.320  0.00  0.00    +0.000 A 
ATOM     39 CL   UNL     1      -6.842  -6.726  19.923  0.00  0.00    +0.000 Cl
BRANCH  37  40
ATOM     40  N   UNL     1      -7.305  -3.803  19.820  0.00  0.00    +0.000 N 
ATOM     41  H   UNL     1      -7.180  -2.924  19.319  0.00  0.00    +0.000 HD
ATOM     42  H   UNL     1      -7.217  -3.711  20.831  0.00  0.00    +0.000 HD
ENDBRANCH  37  40
ENDBRANCH  29  31
ENDBRANCH  28  29
ENDBRANCH   1  28
TORSDOF 6
ENDMDL
MODEL 6
REMARK VINA RESULT:    -8.419      3.714      4.966
REMARK INTER + INTRA:         -11.537
REMARK INTER:                 -11.275
REMARK INTRA:                  -0.262
REMARK UNBOUND:                -0.657
REMARK  Name = 
REMARK  6 active torsions:
REMARK  status: ('A' for Active; 'I' for Inactive)
REMARK    1  A    between atoms: C_1  and  C_2
REMARK    2  A    between atoms: C_2  and  O_3
REMARK    3  A    between atoms: C_2  and  C_16
REMARK    4  A    between atoms: O_3  and  C_4
REMARK    5  A    between atoms: C_4  and  C_6
REMARK    6  A    between atoms: C_12  and  N_13
REMARK                            x       y       z     vdW  Elec       q    Type
REMARK                         _______ _______ _______ _____ _____    ______ ____
ROOT
ATOM      1  C   UNL     1      -8.896  -6.914  17.440  0.00  0.00    +0.000 C 
ATOM      2  H   UNL     1      -9.427  -6.704  16.507  0.00  0.00    +0.000 HD
ENDROOT
BRANCH   1   3
ATOM      3  C   UNL     1      -9.117  -8.408  17.852  0.00  0.00    +0.000 C 
ATOM      4  O   UNL     1      -9.032  -8.723  19.043  0.00  0.00    +0.000 OA
ATOM      5  N   UNL     1      -9.456  -9.369  16.883  0.00  0.00    +0.000 N 
ATOM      6  C   UNL     1      -9.860 -10.706  17.350  0.00  0.00    +0.000 C 
ATOM      7  C   UNL     1      -8.737 -11.738  17.228  0.00  0.00    +0.000 C 
ATOM      8  C   UNL     1      -8.502 -12.263  15.811  0.00  0.00    +0.000 C 
ATOM      9  C   UNL     1      -8.204 -11.184  14.775  0.00  0.00    +0.000 C 
ATOM     10  C   UNL     1      -9.416 -10.298  14.501  0.00  0.00    +0.000 C 
ATOM     11  C   UNL     1      -9.493  -9.098  15.449  0.00  0.00    +0.000 C 
ATOM     12  H   UNL     1     -10.763 -11.025  16.816  0.00  0.00    +0.000 HD
ATOM     13  H   UNL     1     -10.148 -10.649  18.406  0.00  0.00    +0.000 HD
ATOM     14  H   UNL     1      -8.996 -12.602  17.853  0.00  0.00    +0.000 HD
ATOM     15  H   UNL     1      -7.804 -11.326  17.627  0.00  0.00    +0.000 HD
ATOM     16  H   UNL     1      -9.373 -12.846  15.487  0.00  0.00    +0.000 HD
ATOM     17  H   UNL     1      -7.657 -12.963  15.838  0.00  0.00    +0.000 HD
ATOM     18  H   UNL     1      -7.917 -11.682  13.840  0.00  0.00    +0.000 HD
ATOM     19  H   UNL     1      -7.342 -10.581  15.085  0.00  0.00    +0.000 HD
ATOM     20  H   UNL     1     -10.343 -10.888  14.517  0.00  0.00    +0.000 HD
ATOM     21  H   UNL     1      -9.332  -9.904  13.481  0.00  0.00    +0.000 HD
ATOM     22  H   UNL     1     -10.411  -8.537  15.240  0.00  0.00    +0.000 HD
ATOM     23  H   UNL     1      -8.645  -8.451  15.218  0.00  0.00    +0.000 HD
ENDBRANCH   1   3
BRANCH   1  24
ATOM     24  C   UNL     1      -7.405  -6.561  17.272  0.00  0.00    +0.000 C 
ATOM     25  H   UNL     1      -6.774  -7.456  17.198  0.00  0.00    +0.000 HD
ATOM     26  H   UNL     1      -7.025  -5.967  18.112  0.00  0.00    +0.000 HD
ATOM     27  H   UNL     1      -7.217  -5.967  16.369  0.00  0.00    +0.000 HD
ENDBRANCH   1  24
BRANCH   1  28
ATOM     28  O   UNL     1      -9.435  -6.102  18.546  0.00  0.00    +0.000 OA
BRANCH  28  29
ATOM     29  C   UNL     1      -9.707  -4.785  18.315  0.00  0.00    +0.000 C 
ATOM     30  O   UNL     1     -10.392  -4.366  17.415  0.00  0.00    +0.000 OA
BRANCH  29  31
ATOM     31  C   UNL     1      -9.110  -3.900  19.398  0.00  0.00    +0.000 A 
ATOM     32  N   UNL     1      -7.906  -4.273  19.916  0.00  0.00    +0.000 NA
ATOM     33  C   UNL     1      -7.438  -3.548  20.957  0.00  0.00    +0.000 A 
ATOM     34 CL   UNL     1      -5.975  -4.184  21.616  0.00  0.00    +0.000 Cl
ATOM     35  C   UNL     1      -8.064  -2.415  21.496  0.00  0.00    +0.000 A 
ATOM     36 CL   UNL     1      -7.421  -1.555  22.856  0.00  0.00    +0.000 Cl
ATOM     37  C   UNL     1      -9.271  -1.997  20.913  0.00  0.00    +0.000 A 
ATOM     38  C   UNL     1      -9.821  -2.781  19.868  0.00  0.00    +0.000 A 
ATOM     39 CL   UNL     1     -11.395  -2.348  19.276  0.00  0.00    +0.000 Cl
BRANCH  37  40
ATOM     40  N   UNL     1     -10.046  -0.976  21.527  0.00  0.00    +0.000 N 
ATOM     41  H   UNL     1     -10.319  -1.164  22.491  0.00  0.00    +0.000 HD
ATOM     42  H   UNL     1      -9.698  -0.030  21.380  0.00  0.00    +0.000 HD
ENDBRANCH  37  40
ENDBRANCH  29  31
ENDBRANCH  28  29
ENDBRANCH   1  28
TORSDOF 6
ENDMDL
MODEL 7
REMARK VINA RESULT:    -8.368      2.158      3.147
REMARK INTER + INTRA:         -11.472
REMARK INTER:                 -10.894
REMARK INTRA:                  -0.578
REMARK UNBOUND:                -0.657
REMARK  Name = 
REMARK  6 active torsions:
REMARK  status: ('A' for Active; 'I' for Inactive)
REMARK    1  A    between atoms: C_1  and  C_2
REMARK    2  A    between atoms: C_2  and  O_3
REMARK    3  A    between atoms: C_2  and  C_16
REMARK    4  A    between atoms: O_3  and  C_4
REMARK    5  A    between atoms: C_4  and  C_6
REMARK    6  A    between atoms: C_12  and  N_13
REMARK                            x       y       z     vdW  Elec       q    Type
REMARK                         _______ _______ _______ _____ _____    ______ ____
ROOT
ATOM      1  C   UNL     1      -8.638  -6.826  17.415  0.00  0.00    +0.000 C 
ATOM      2  H   UNL     1      -8.620  -6.734  16.325  0.00  0.00    +0.000 HD
ENDROOT
BRANCH   1   3
ATOM      3  C   UNL     1      -8.915  -8.313  17.818  0.00  0.00    +0.000 C 
ATOM      4  O   UNL     1      -8.807  -8.646  19.002  0.00  0.00    +0.000 OA
ATOM      5  N   UNL     1      -9.329  -9.246  16.851  0.00  0.00    +0.000 N 
ATOM      6  C   UNL     1      -9.780 -10.568  17.317  0.00  0.00    +0.000 C 
ATOM      7  C   UNL     1      -8.711 -11.650  17.147  0.00  0.00    +0.000 C 
ATOM      8  C   UNL     1      -8.546 -12.167  15.717  0.00  0.00    +0.000 C 
ATOM      9  C   UNL     1      -8.232 -11.091  14.684  0.00  0.00    +0.000 C 
ATOM     10  C   UNL     1      -9.410 -10.147  14.459  0.00  0.00    +0.000 C 
ATOM     11  C   UNL     1      -9.400  -8.956  15.421  0.00  0.00    +0.000 C 
ATOM     12  H   UNL     1     -10.714 -10.838  16.809  0.00  0.00    +0.000 HD
ATOM     13  H   UNL     1     -10.031 -10.511  18.382  0.00  0.00    +0.000 HD
ATOM     14  H   UNL     1      -8.990 -12.508  17.771  0.00  0.00    +0.000 HD
ATOM     15  H   UNL     1      -7.747 -11.286  17.519  0.00  0.00    +0.000 HD
ATOM     16  H   UNL     1      -9.453 -12.706  15.416  0.00  0.00    +0.000 HD
ATOM     17  H   UNL     1      -7.735 -12.906  15.709  0.00  0.00    +0.000 HD
ATOM     18  H   UNL     1      -7.999 -11.591  13.735  0.00  0.00    +0.000 HD
ATOM     19  H   UNL     1      -7.333 -10.533  14.972  0.00  0.00    +0.000 HD
ATOM     20  H   UNL     1     -10.361 -10.694  14.499  0.00  0.00    +0.000 HD
ATOM     21  H   UNL     1      -9.340  -9.745  13.440  0.00  0.00    +0.000 HD
ATOM     22  H   UNL     1     -10.297  -8.350  15.248  0.00  0.00    +0.000 HD
ATOM     23  H   UNL     1      -8.530  -8.346  15.170  0.00  0.00    +0.000 HD
ENDBRANCH   1   3
BRANCH   1  24
ATOM     24  C   UNL     1      -7.313  -6.292  17.996  0.00  0.00    +0.000 C 
ATOM     25  H   UNL     1      -6.582  -6.061  17.210  0.00  0.00    +0.000 HD
ATOM     26  H   UNL     1      -6.840  -7.013  18.674  0.00  0.00    +0.000 HD
ATOM     27  H   UNL     1      -7.453  -5.373  18.576  0.00  0.00    +0.000 HD
ENDBRANCH   1  24
BRANCH   1  28
ATOM     28  O   UNL     1      -9.739  -6.035  17.992  0.00  0.00    +0.000 OA
BRANCH  28  29
ATOM     29  C   UNL     1     -10.981  -6.143  17.435  0.00  0.00    +0.000 C 
ATOM     30  O   UNL     1     -11.754  -7.047  17.636  0.00  0.00    +0.000 OA
BRANCH  29  31
ATOM     31  C   UNL     1     -11.316  -4.923  16.591  0.00  0.00    +0.000 A 
ATOM     32  N   UNL     1     -11.190  -5.046  15.240  0.00  0.00    +0.000 NA
ATOM     33  C   UNL     1     -11.376  -3.926  14.505  0.00  0.00    +0.000 A 
ATOM     34 CL   UNL     1     -11.066  -4.165  12.824  0.00  0.00    +0.000 Cl
ATOM     35  C   UNL     1     -11.747  -2.677  15.021  0.00  0.00    +0.000 A 
ATOM     36 CL   UNL     1     -11.936  -1.274  14.020  0.00  0.00    +0.000 Cl
ATOM     37  C   UNL     1     -11.941  -2.575  16.409  0.00  0.00    +0.000 A 
ATOM     38  C   UNL     1     -11.681  -3.715  17.210  0.00  0.00    +0.000 A 
ATOM     39 CL   UNL     1     -11.760  -3.524  18.935  0.00  0.00    +0.000 Cl
BRANCH  37  40
ATOM     40  N   UNL     1     -12.133  -1.302  17.012  0.00  0.00    +0.000 N 
ATOM     41  H   UNL     1     -12.587  -0.609  16.420  0.00  0.00    +0.000 HD
ATOM     42  H   UNL     1     -12.504  -1.332  17.961  0.00  0.00    +0.000 HD
ENDBRANCH  37  40
ENDBRANCH  29  31
ENDBRANCH  28  29
ENDBRANCH   1  28
TORSDOF 6
ENDMDL
MODEL 8
REMARK VINA RESULT:    -8.300      3.962      5.106
REMARK INTER + INTRA:         -11.383
REMARK INTER:                 -11.545
REMARK INTRA:                   0.162
REMARK UNBOUND:                -0.657
REMARK  Name = 
REMARK  6 active torsions:
REMARK  status: ('A' for Active; 'I' for Inactive)
REMARK    1  A    between atoms: C_1  and  C_2
REMARK    2  A    between atoms: C_2  and  O_3
REMARK    3  A    between atoms: C_2  and  C_16
REMARK    4  A    between atoms: O_3  and  C_4
REMARK    5  A    between atoms: C_4  and  C_6
REMARK    6  A    between atoms: C_12  and  N_13
REMARK                            x       y       z     vdW  Elec       q    Type
REMARK                         _______ _______ _______ _____ _____    ______ ____
ROOT
ATOM      1  C   UNL     1      -9.040  -6.988  17.455  0.00  0.00    +0.000 C 
ATOM      2  H   UNL     1      -9.880  -6.778  16.787  0.00  0.00    +0.000 HD
ENDROOT
BRANCH   1   3
ATOM      3  C   UNL     1      -9.110  -8.474  17.943  0.00  0.00    +0.000 C 
ATOM      4  O   UNL     1      -8.885  -8.728  19.130  0.00  0.00    +0.000 OA
ATOM      5  N   UNL     1      -9.471  -9.499  17.051  0.00  0.00    +0.000 N 
ATOM      6  C   UNL     1      -9.729 -10.838  17.606  0.00  0.00    +0.000 C 
ATOM      7  C   UNL     1      -8.552 -11.795  17.409  0.00  0.00    +0.000 C 
ATOM      8  C   UNL     1      -8.420 -12.365  15.996  0.00  0.00    +0.000 C 
ATOM      9  C   UNL     1      -8.306 -11.316  14.896  0.00  0.00    +0.000 C 
ATOM     10  C   UNL     1      -9.600 -10.528  14.714  0.00  0.00    +0.000 C 
ATOM     11  C   UNL     1      -9.670  -9.295  15.618  0.00  0.00    +0.000 C 
ATOM     12  H   UNL     1     -10.655 -11.241  17.179  0.00  0.00    +0.000 HD
ATOM     13  H   UNL     1      -9.915 -10.754  18.683  0.00  0.00    +0.000 HD
ATOM     14  H   UNL     1      -8.684 -12.646  18.089  0.00  0.00    +0.000 HD
ATOM     15  H   UNL     1      -7.616 -11.302  17.696  0.00  0.00    +0.000 HD
ATOM     16  H   UNL     1      -9.274 -13.020  15.785  0.00  0.00    +0.000 HD
ATOM     17  H   UNL     1      -7.528 -13.003  15.964  0.00  0.00    +0.000 HD
ATOM     18  H   UNL     1      -8.077 -11.834  13.956  0.00  0.00    +0.000 HD
ATOM     19  H   UNL     1      -7.463 -10.642  15.093  0.00  0.00    +0.000 HD
ATOM     20  H   UNL     1     -10.475 -11.179  14.846  0.00  0.00    +0.000 HD
ATOM     21  H   UNL     1      -9.646 -10.175  13.675  0.00  0.00    +0.000 HD
ATOM     22  H   UNL     1     -10.642  -8.808  15.482  0.00  0.00    +0.000 HD
ATOM     23  H   UNL     1      -8.898  -8.602  15.278  0.00  0.00    +0.000 HD
ENDBRANCH   1   3
BRANCH   1  24
ATOM     24  C   UNL     1      -7.717  -6.664  16.733  0.00  0.00    +0.000 C 
ATOM     25  H   UNL     1      -6.963  -6.253  17.417  0.00  0.00    +0.000 HD
ATOM     26  H   UNL     1      -7.855  -5.931  15.928  0.00  0.00    +0.000 HD
ATOM     27  H   UNL     1      -7.270  -7.549  16.265  0.00  0.00    +0.000 HD
ENDBRANCH   1  24
BRANCH   1  28
ATOM     28  O   UNL     1      -9.112  -6.156  18.669  0.00  0.00    +0.000 OA
BRANCH  28  29
ATOM     29  C   UNL     1      -9.392  -4.827  18.533  0.00  0.00    +0.000 C 
ATOM     30  O   UNL     1     -10.046  -4.344  17.642  0.00  0.00    +0.000 OA
BRANCH  29  31
ATOM     31  C   UNL     1      -8.851  -4.026  19.707  0.00  0.00    +0.000 A 
ATOM     32  N   UNL     1      -9.515  -2.885  20.042  0.00  0.00    +0.000 NA
ATOM     33  C   UNL     1      -8.963  -2.118  21.009  0.00  0.00    +0.000 A 
ATOM     34 CL   UNL     1      -9.814  -0.638  21.262  0.00  0.00    +0.000 Cl
ATOM     35  C   UNL     1      -7.803  -2.440  21.728  0.00  0.00    +0.000 A 
ATOM     36 CL   UNL     1      -7.133  -1.390  22.933  0.00  0.00    +0.000 Cl
ATOM     37  C   UNL     1      -7.161  -3.651  21.423  0.00  0.00    +0.000 A 
ATOM     38  C   UNL     1      -7.678  -4.438  20.364  0.00  0.00    +0.000 A 
ATOM     39 CL   UNL     1      -6.775  -5.844  19.888  0.00  0.00    +0.000 Cl
BRANCH  37  40
ATOM     40  N   UNL     1      -5.887  -3.945  21.979  0.00  0.00    +0.000 N 
ATOM     41  H   UNL     1      -5.403  -4.735  21.555  0.00  0.00    +0.000 HD
ATOM     42  H   UNL     1      -5.289  -3.133  22.126  0.00  0.00    +0.000 HD
ENDBRANCH  37  40
ENDBRANCH  29  31
ENDBRANCH  28  29
ENDBRANCH   1  28
TORSDOF 6
ENDMDL
MODEL 9
REMARK VINA RESULT:    -8.296      3.654      4.559
REMARK INTER + INTRA:         -11.379
REMARK INTER:                 -11.855
REMARK INTRA:                   0.476
REMARK UNBOUND:                -0.657
REMARK  Name = 
REMARK  6 active torsions:
REMARK  status: ('A' for Active; 'I' for Inactive)
REMARK    1  A    between atoms: C_1  and  C_2
REMARK    2  A    between atoms: C_2  and  O_3
REMARK    3  A    between atoms: C_2  and  C_16
REMARK    4  A    between atoms: O_3  and  C_4
REMARK    5  A    between atoms: C_4  and  C_6
REMARK    6  A    between atoms: C_12  and  N_13
REMARK                            x       y       z     vdW  Elec       q    Type
REMARK                         _______ _______ _______ _____ _____    ______ ____
ROOT
ATOM      1  C   UNL     1      -8.863  -7.218  18.268  0.00  0.00    +0.000 C 
ATOM      2  H   UNL     1      -9.837  -6.837  17.950  0.00  0.00    +0.000 HD
ENDROOT
BRANCH   1   3
ATOM      3  C   UNL     1      -8.915  -8.778  18.385  0.00  0.00    +0.000 C 
ATOM      4  O   UNL     1      -8.566  -9.314  19.441  0.00  0.00    +0.000 OA
ATOM      5  N   UNL     1      -9.401  -9.555  17.319  0.00  0.00    +0.000 N 
ATOM      6  C   UNL     1      -9.629 -10.990  17.559  0.00  0.00    +0.000 C 
ATOM      7  C   UNL     1      -8.506 -11.867  17.002  0.00  0.00    +0.000 C 
ATOM      8  C   UNL     1      -8.548 -12.075  15.487  0.00  0.00    +0.000 C 
ATOM      9  C   UNL     1      -8.530 -10.788  14.668  0.00  0.00    +0.000 C 
ATOM     10  C   UNL     1      -9.816  -9.983  14.832  0.00  0.00    +0.000 C 
ATOM     11  C   UNL     1      -9.753  -9.008  16.011  0.00  0.00    +0.000 C 
ATOM     12  H   UNL     1     -10.607 -11.279  17.156  0.00  0.00    +0.000 HD
ATOM     13  H   UNL     1      -9.691 -11.171  18.637  0.00  0.00    +0.000 HD
ATOM     14  H   UNL     1      -8.583 -12.858  17.465  0.00  0.00    +0.000 HD
ATOM     15  H   UNL     1      -7.532 -11.457  17.289  0.00  0.00    +0.000 HD
ATOM     16  H   UNL     1      -9.436 -12.661  15.222  0.00  0.00    +0.000 HD
ATOM     17  H   UNL     1      -7.682 -12.684  15.198  0.00  0.00    +0.000 HD
ATOM     18  H   UNL     1      -8.421 -11.061  13.611  0.00  0.00    +0.000 HD
ATOM     19  H   UNL     1      -7.654 -10.181  14.925  0.00  0.00    +0.000 HD
ATOM     20  H   UNL     1     -10.687 -10.649  14.902  0.00  0.00    +0.000 HD
ATOM     21  H   UNL     1      -9.969  -9.388  13.923  0.00  0.00    +0.000 HD
ATOM     22  H   UNL     1     -10.722  -8.505  16.110  0.00  0.00    +0.000 HD
ATOM     23  H   UNL     1      -9.007  -8.251  15.763  0.00  0.00    +0.000 HD
ENDBRANCH   1   3
BRANCH   1  24
ATOM     24  C   UNL     1      -7.779  -6.735  17.284  0.00  0.00    +0.000 C 
ATOM     25  H   UNL     1      -8.006  -5.742  16.874  0.00  0.00    +0.000 HD
ATOM     26  H   UNL     1      -7.662  -7.415  16.432  0.00  0.00    +0.000 HD
ATOM     27  H   UNL     1      -6.791  -6.662  17.755  0.00  0.00    +0.000 HD
ENDBRANCH   1  24
BRANCH   1  28
ATOM     28  O   UNL     1      -8.514  -6.719  19.610  0.00  0.00    +0.000 OA
BRANCH  28  29
ATOM     29  C   UNL     1      -7.569  -5.740  19.717  0.00  0.00    +0.000 C 
ATOM     30  O   UNL     1      -6.383  -5.903  19.569  0.00  0.00    +0.000 OA
BRANCH  29  31
ATOM     31  C   UNL     1      -8.207  -4.381  19.955  0.00  0.00    +0.000 A 
ATOM     32  N   UNL     1      -9.208  -4.005  19.110  0.00  0.00    +0.000 NA
ATOM     33  C   UNL     1      -9.690  -2.749  19.254  0.00  0.00    +0.000 A 
ATOM     34 CL   UNL     1     -10.858  -2.335  18.054  0.00  0.00    +0.000 Cl
ATOM     35  C   UNL     1      -9.284  -1.839  20.240  0.00  0.00    +0.000 A 
ATOM     36 CL   UNL     1      -9.923  -0.231  20.344  0.00  0.00    +0.000 Cl
ATOM     37  C   UNL     1      -8.299  -2.259  21.151  0.00  0.00    +0.000 A 
ATOM     38  C   UNL     1      -7.726  -3.543  20.976  0.00  0.00    +0.000 A 
ATOM     39 CL   UNL     1      -6.393  -3.978  22.002  0.00  0.00    +0.000 Cl
BRANCH  37  40
ATOM     40  N   UNL     1      -7.713  -1.327  22.050  0.00  0.00    +0.000 N 
ATOM     41  H   UNL     1      -8.234  -1.177  22.913  0.00  0.00    +0.000 HD
ATOM     42  H   UNL     1      -6.712  -1.446  22.194  0.00  0.00    +0.000 HD
ENDBRANCH  37  40
ENDBRANCH  29  31
ENDBRANCH  28  29
ENDBRANCH   1  28
TORSDOF 6
ENDMDL
