MODEL 1
REMARK VINA RESULT:   -10.499      0.000      0.000
REMARK INTER + INTRA:         -13.716
REMARK INTER:                 -12.954
REMARK INTRA:                  -0.762
REMARK UNBOUND:                -0.762
REMARK  Name = 
REMARK  4 active torsions:
REMARK  status: ('A' for Active; 'I' for Inactive)
REMARK    1  A    between atoms: C_2  and  C_11
REMARK    2  A    between atoms: N_3  and  C_4
REMARK    3  A    between atoms: C_16  and  C_17
REMARK    4  A    between atoms: C_22  and  C_23
REMARK                            x       y       z     vdW  Elec       q    Type
REMARK                         _______ _______ _______ _____ _____    ______ ____
ROOT
ATOM      1  C   UNL     1      -9.183  -7.948  18.054  0.00  0.00    +0.000 A 
ATOM      2  C   UNL     1      -9.782  -6.698  17.738  0.00  0.00    +0.000 A 
ATOM      3  C   UNL     1      -9.203  -5.799  18.584  0.00  0.00    +0.000 A 
ATOM      4  N   UNL     1      -8.275  -6.500  19.299  0.00  0.00    +0.000 N 
ATOM      5  N   UNL     1      -8.287  -7.832  19.064  0.00  0.00    +0.000 NA
ATOM      6  C   UNL     1      -7.385  -5.875  20.262  0.00  0.00    +0.000 C 
ATOM      7  C   UNL     1      -8.054  -4.602  20.826  0.00  0.00    +0.000 C 
ATOM      8  C   UNL     1      -8.567  -3.698  19.684  0.00  0.00    +0.000 C 
ATOM      9  N   UNL     1      -9.410  -4.485  18.787  0.00  0.00    +0.000 N 
ATOM     10  H   UNL     1     -10.549  -6.514  16.997  0.00  0.00    +0.000 HD
ATOM     11  H   UNL     1      -7.260  -6.591  21.083  0.00  0.00    +0.000 HD
ATOM     12  H   UNL     1      -7.360  -4.056  21.478  0.00  0.00    +0.000 HD
ATOM     13  H   UNL     1      -8.899  -4.905  21.461  0.00  0.00    +0.000 HD
ATOM     14  H   UNL     1      -7.720  -3.331  19.093  0.00  0.00    +0.000 HD
ATOM     15  H   UNL     1     -10.018  -3.943  18.172  0.00  0.00    +0.000 HD
ENDROOT
BRANCH   8  16
ATOM     16  C   UNL     1      -9.299  -2.510  20.220  0.00  0.00    +0.000 A 
ATOM     17  C   UNL     1      -8.917  -1.446  21.013  0.00  0.00    +0.000 A 
ATOM     18  C   UNL     1     -10.100  -0.732  21.318  0.00  0.00    +0.000 A 
ATOM     19  C   UNL     1     -11.119  -1.380  20.660  0.00  0.00    +0.000 A 
ATOM     20  O   UNL     1     -10.641  -2.457  19.984  0.00  0.00    +0.000 OA
ATOM     21  H   UNL     1      -7.914  -1.248  21.367  0.00  0.00    +0.000 HD
ATOM     22  H   UNL     1     -10.201   0.137  21.952  0.00  0.00    +0.000 HD
ATOM     23  H   UNL     1     -12.186  -1.221  20.591  0.00  0.00    +0.000 HD
ENDBRANCH   8  16
BRANCH   1  25
ATOM     24  O   UNL     1     -10.558  -9.316  16.750  0.00  0.00    +0.000 OA
ATOM     25  C   UNL     1      -9.508  -9.212  17.377  0.00  0.00    +0.000 C 
ATOM     26  N   UNL     1      -8.576 -10.215  17.566  0.00  0.00    +0.000 N 
ATOM     27  H   UNL     1      -7.840  -9.993  18.229  0.00  0.00    +0.000 HD
BRANCH  26  28
ATOM     28  C   UNL     1      -8.653 -11.519  17.030  0.00  0.00    +0.000 A 
ATOM     29  C   UNL     1      -8.829 -12.657  17.828  0.00  0.00    +0.000 A 
ATOM     30  C   UNL     1      -8.856 -13.933  17.262  0.00  0.00    +0.000 A 
ATOM     31  C   UNL     1      -8.709 -14.072  15.892  0.00  0.00    +0.000 A 
ATOM     32  F   UNL     1      -8.711 -15.296  15.350  0.00  0.00    +0.000 F 
ATOM     33  C   UNL     1      -8.560 -12.956  15.077  0.00  0.00    +0.000 A 
ATOM     34  C   UNL     1      -8.545 -11.675  15.643  0.00  0.00    +0.000 A 
ATOM     35  H   UNL     1      -8.966 -12.586  18.903  0.00  0.00    +0.000 HD
ATOM     36  H   UNL     1      -8.984 -14.810  17.890  0.00  0.00    +0.000 HD
ATOM     37  H   UNL     1      -8.444 -13.092  14.006  0.00  0.00    +0.000 HD
ATOM     38  H   UNL     1      -8.414 -10.816  14.991  0.00  0.00    +0.000 HD
ENDBRANCH  26  28
ENDBRANCH   1  25
BRANCH   6  39
ATOM     39  C   UNL     1      -6.029  -5.594  19.631  0.00  0.00    +0.000 C 
ATOM     40  F   UNL     1      -5.477  -4.418  19.992  0.00  0.00    +0.000 F 
ATOM     41  F   UNL     1      -5.122  -6.557  19.927  0.00  0.00    +0.000 F 
ATOM     42  F   UNL     1      -6.136  -5.584  18.278  0.00  0.00    +0.000 F 
ENDBRANCH   6  39
TORSDOF 4
ENDMDL
MODEL 2
REMARK VINA RESULT:   -10.255      2.093      3.038
REMARK INTER + INTRA:         -13.415
REMARK INTER:                 -12.986
REMARK INTRA:                  -0.429
REMARK UNBOUND:                -0.762
REMARK  Name = 
REMARK  4 active torsions:
REMARK  status: ('A' for Active; 'I' for Inactive)
REMARK    1  A    between atoms: C_2  and  C_11
REMARK    2  A    between atoms: N_3  and  C_4
REMARK    3  A    between atoms: C_16  and  C_17
REMARK    4  A    between atoms: C_22  and  C_23
REMARK                            x       y       z     vdW  Elec       q    Type
REMARK                         _______ _______ _______ _____ _____    ______ ____
ROOT
ATOM      1  C   UNL     1      -8.319  -5.631  19.049  0.00  0.00    +0.000 A 
ATOM      2  C   UNL     1      -8.968  -4.392  18.788  0.00  0.00    +0.000 A 
ATOM      3  C   UNL     1      -8.840  -3.671  19.937  0.00  0.00    +0.000 A 
ATOM      4  N   UNL     1      -8.098  -4.443  20.785  0.00  0.00    +0.000 N 
ATOM      5  N   UNL     1      -7.829  -5.681  20.311  0.00  0.00    +0.000 NA
ATOM      6  C   UNL     1      -7.675  -3.990  22.099  0.00  0.00    +0.000 C 
ATOM      7  C   UNL     1      -8.677  -2.940  22.624  0.00  0.00    +0.000 C 
ATOM      8  C   UNL     1      -8.925  -1.839  21.571  0.00  0.00    +0.000 C 
ATOM      9  N   UNL     1      -9.301  -2.460  20.302  0.00  0.00    +0.000 N 
ATOM     10  H   UNL     1      -9.472  -4.103  17.875  0.00  0.00    +0.000 HD
ATOM     11  H   UNL     1      -7.715  -4.866  22.758  0.00  0.00    +0.000 HD
ATOM     12  H   UNL     1      -8.325  -2.507  23.570  0.00  0.00    +0.000 HD
ATOM     13  H   UNL     1      -9.626  -3.448  22.853  0.00  0.00    +0.000 HD
ATOM     14  H   UNL     1      -7.999  -1.279  21.394  0.00  0.00    +0.000 HD
ATOM     15  H   UNL     1      -9.751  -1.841  19.629  0.00  0.00    +0.000 HD
ENDROOT
BRANCH   8  16
ATOM     16  C   UNL     1      -9.964  -0.869  22.032  0.00  0.00    +0.000 A 
ATOM     17  C   UNL     1     -11.328  -0.784  21.835  0.00  0.00    +0.000 A 
ATOM     18  C   UNL     1     -11.734   0.453  22.390  0.00  0.00    +0.000 A 
ATOM     19  C   UNL     1     -10.602   1.022  22.925  0.00  0.00    +0.000 A 
ATOM     20  O   UNL     1      -9.523   0.223  22.720  0.00  0.00    +0.000 OA
ATOM     21  H   UNL     1     -11.937  -1.506  21.307  0.00  0.00    +0.000 HD
ATOM     22  H   UNL     1     -12.724   0.884  22.385  0.00  0.00    +0.000 HD
ATOM     23  H   UNL     1     -10.404   1.951  23.441  0.00  0.00    +0.000 HD
ENDBRANCH   8  16
BRANCH   1  25
ATOM     24  O   UNL     1      -7.438  -6.622  17.125  0.00  0.00    +0.000 OA
ATOM     25  C   UNL     1      -8.210  -6.725  18.073  0.00  0.00    +0.000 C 
ATOM     26  N   UNL     1      -9.063  -7.787  18.310  0.00  0.00    +0.000 N 
ATOM     27  H   UNL     1      -9.729  -7.637  19.061  0.00  0.00    +0.000 HD
BRANCH  26  28
ATOM     28  C   UNL     1      -9.158  -8.955  17.524  0.00  0.00    +0.000 A 
ATOM     29  C   UNL     1      -8.856 -10.230  18.021  0.00  0.00    +0.000 A 
ATOM     30  C   UNL     1      -8.920 -11.355  17.197  0.00  0.00    +0.000 A 
ATOM     31  C   UNL     1      -9.289 -11.206  15.871  0.00  0.00    +0.000 A 
ATOM     32  F   UNL     1      -9.328 -12.281  15.073  0.00  0.00    +0.000 F 
ATOM     33  C   UNL     1      -9.619  -9.956  15.361  0.00  0.00    +0.000 A 
ATOM     34  C   UNL     1      -9.566  -8.829  16.191  0.00  0.00    +0.000 A 
ATOM     35  H   UNL     1      -8.581 -10.388  19.060  0.00  0.00    +0.000 HD
ATOM     36  H   UNL     1      -8.677 -12.338  17.591  0.00  0.00    +0.000 HD
ATOM     37  H   UNL     1      -9.903  -9.866  14.317  0.00  0.00    +0.000 HD
ATOM     38  H   UNL     1      -9.814  -7.858  15.771  0.00  0.00    +0.000 HD
ENDBRANCH  26  28
ENDBRANCH   1  25
BRANCH   6  39
ATOM     39  C   UNL     1      -6.248  -3.465  22.048  0.00  0.00    +0.000 C 
ATOM     40  F   UNL     1      -5.652  -3.582  20.843  0.00  0.00    +0.000 F 
ATOM     41  F   UNL     1      -6.176  -2.156  22.393  0.00  0.00    +0.000 F 
ATOM     42  F   UNL     1      -5.473  -4.132  22.940  0.00  0.00    +0.000 F 
ENDBRANCH   6  39
TORSDOF 4
ENDMDL
MODEL 3
REMARK VINA RESULT:   -10.070      3.336      3.809
REMARK INTER + INTRA:         -13.187
REMARK INTER:                 -12.488
REMARK INTRA:                  -0.699
REMARK UNBOUND:                -0.762
REMARK  Name = 
REMARK  4 active torsions:
REMARK  status: ('A' for Active; 'I' for Inactive)
REMARK    1  A    between atoms: C_2  and  C_11
REMARK    2  A    between atoms: N_3  and  C_4
REMARK    3  A    between atoms: C_16  and  C_17
REMARK    4  A    between atoms: C_22  and  C_23
REMARK                            x       y       z     vdW  Elec       q    Type
REMARK                         _______ _______ _______ _____ _____    ______ ____
ROOT
ATOM      1  C   UNL     1     -10.533  -6.899  16.966  0.00  0.00    +0.000 A 
ATOM      2  C   UNL     1     -10.821  -6.455  18.286  0.00  0.00    +0.000 A 
ATOM      3  C   UNL     1     -10.765  -5.094  18.227  0.00  0.00    +0.000 A 
ATOM      4  N   UNL     1     -10.520  -4.785  16.919  0.00  0.00    +0.000 N 
ATOM      5  N   UNL     1     -10.291  -5.860  16.131  0.00  0.00    +0.000 NA
ATOM      6  C   UNL     1     -10.466  -3.419  16.428  0.00  0.00    +0.000 C 
ATOM      7  C   UNL     1     -10.043  -2.479  17.578  0.00  0.00    +0.000 C 
ATOM      8  C   UNL     1     -10.911  -2.719  18.833  0.00  0.00    +0.000 C 
ATOM      9  N   UNL     1     -10.892  -4.141  19.168  0.00  0.00    +0.000 N 
ATOM     10  H   UNL     1     -11.018  -7.074  19.151  0.00  0.00    +0.000 HD
ATOM     11  H   UNL     1      -9.685  -3.395  15.658  0.00  0.00    +0.000 HD
ATOM     12  H   UNL     1     -10.094  -1.429  17.260  0.00  0.00    +0.000 HD
ATOM     13  H   UNL     1      -8.988  -2.677  17.819  0.00  0.00    +0.000 HD
ATOM     14  H   UNL     1     -11.952  -2.450  18.620  0.00  0.00    +0.000 HD
ATOM     15  H   UNL     1     -11.190  -4.370  20.116  0.00  0.00    +0.000 HD
ENDROOT
BRANCH   8  16
ATOM     16  C   UNL     1     -10.448  -1.881  19.981  0.00  0.00    +0.000 A 
ATOM     17  C   UNL     1      -9.267  -1.217  20.248  0.00  0.00    +0.000 A 
ATOM     18  C   UNL     1      -9.373  -0.735  21.574  0.00  0.00    +0.000 A 
ATOM     19  C   UNL     1     -10.623  -1.099  22.015  0.00  0.00    +0.000 A 
ATOM     20  O   UNL     1     -11.287  -1.789  21.052  0.00  0.00    +0.000 OA
ATOM     21  H   UNL     1      -8.419  -1.141  19.580  0.00  0.00    +0.000 HD
ATOM     22  H   UNL     1      -8.624  -0.204  22.144  0.00  0.00    +0.000 HD
ATOM     23  H   UNL     1     -11.156  -0.967  22.947  0.00  0.00    +0.000 HD
ENDBRANCH   8  16
BRANCH   1  25
ATOM     24  O   UNL     1     -11.493  -8.848  16.104  0.00  0.00    +0.000 OA
ATOM     25  C   UNL     1     -10.489  -8.313  16.564  0.00  0.00    +0.000 C 
ATOM     26  N   UNL     1      -9.278  -8.935  16.802  0.00  0.00    +0.000 N 
ATOM     27  H   UNL     1      -8.606  -8.375  17.317  0.00  0.00    +0.000 HD
BRANCH  26  28
ATOM     28  C   UNL     1      -8.977 -10.283  16.512  0.00  0.00    +0.000 A 
ATOM     29  C   UNL     1      -8.780 -10.752  15.206  0.00  0.00    +0.000 A 
ATOM     30  C   UNL     1      -8.528 -12.103  14.959  0.00  0.00    +0.000 A 
ATOM     31  C   UNL     1      -8.470 -12.989  16.021  0.00  0.00    +0.000 A 
ATOM     32  F   UNL     1      -8.252 -14.288  15.784  0.00  0.00    +0.000 F 
ATOM     33  C   UNL     1      -8.636 -12.544  17.327  0.00  0.00    +0.000 A 
ATOM     34  C   UNL     1      -8.876 -11.186  17.577  0.00  0.00    +0.000 A 
ATOM     35  H   UNL     1      -8.799 -10.083  14.350  0.00  0.00    +0.000 HD
ATOM     36  H   UNL     1      -8.385 -12.457  13.942  0.00  0.00    +0.000 HD
ATOM     37  H   UNL     1      -8.588 -13.259  18.143  0.00  0.00    +0.000 HD
ATOM     38  H   UNL     1      -9.017 -10.860  18.603  0.00  0.00    +0.000 HD
ENDBRANCH  26  28
ENDBRANCH   1  25
BRANCH   6  39
ATOM     39  C   UNL     1     -11.796  -3.022  15.806  0.00  0.00    +0.000 C 
ATOM     40  F   UNL     1     -12.874  -3.302  16.567  0.00  0.00    +0.000 F 
ATOM     41  F   UNL     1     -11.850  -1.697  15.525  0.00  0.00    +0.000 F 
ATOM     42  F   UNL     1     -11.968  -3.663  14.623  0.00  0.00    +0.000 F 
ENDBRANCH   6  39
TORSDOF 4
ENDMDL
MODEL 4
REMARK VINA RESULT:   -10.047      2.669      3.295
REMARK INTER + INTRA:         -13.158
REMARK INTER:                 -12.453
REMARK INTRA:                  -0.705
REMARK UNBOUND:                -0.762
REMARK  Name = 
REMARK  4 active torsions:
REMARK  status: ('A' for Active; 'I' for Inactive)
REMARK    1  A    between atoms: C_2  and  C_11
REMARK    2  A    between atoms: N_3  and  C_4
REMARK    3  A    between atoms: C_16  and  C_17
REMARK    4  A    between atoms: C_22  and  C_23
REMARK                            x       y       z     vdW  Elec       q    Type
REMARK                         _______ _______ _______ _____ _____    ______ ____
ROOT
ATOM      1  C   UNL     1      -9.478  -7.999  17.582  0.00  0.00    +0.000 A 
ATOM      2  C   UNL     1      -9.020  -7.845  18.920  0.00  0.00    +0.000 A 
ATOM      3  C   UNL     1      -9.035  -6.502  19.153  0.00  0.00    +0.000 A 
ATOM      4  N   UNL     1      -9.540  -5.930  18.020  0.00  0.00    +0.000 N 
ATOM      5  N   UNL     1      -9.747  -6.803  17.007  0.00  0.00    +0.000 NA
ATOM      6  C   UNL     1      -9.790  -4.505  17.899  0.00  0.00    +0.000 C 
ATOM      7  C   UNL     1      -8.835  -3.737  18.840  0.00  0.00    +0.000 C 
ATOM      8  C   UNL     1      -8.885  -4.320  20.269  0.00  0.00    +0.000 C 
ATOM      9  N   UNL     1      -8.656  -5.763  20.211  0.00  0.00    +0.000 N 
ATOM     10  H   UNL     1      -8.706  -8.632  19.594  0.00  0.00    +0.000 HD
ATOM     11  H   UNL     1      -9.547  -4.232  16.865  0.00  0.00    +0.000 HD
ATOM     12  H   UNL     1      -9.073  -2.666  18.844  0.00  0.00    +0.000 HD
ATOM     13  H   UNL     1      -7.812  -3.824  18.444  0.00  0.00    +0.000 HD
ATOM     14  H   UNL     1      -9.882  -4.168  20.697  0.00  0.00    +0.000 HD
ATOM     15  H   UNL     1      -8.392  -6.199  21.094  0.00  0.00    +0.000 HD
ENDROOT
BRANCH   8  16
ATOM     16  C   UNL     1      -7.895  -3.646  21.164  0.00  0.00    +0.000 A 
ATOM     17  C   UNL     1      -7.988  -2.583  22.041  0.00  0.00    +0.000 A 
ATOM     18  C   UNL     1      -6.669  -2.308  22.474  0.00  0.00    +0.000 A 
ATOM     19  C   UNL     1      -5.865  -3.245  21.868  0.00  0.00    +0.000 A 
ATOM     20  O   UNL     1      -6.601  -4.067  21.077  0.00  0.00    +0.000 OA
ATOM     21  H   UNL     1      -8.893  -2.044  22.289  0.00  0.00    +0.000 HD
ATOM     22  H   UNL     1      -6.344  -1.516  23.132  0.00  0.00    +0.000 HD
ATOM     23  H   UNL     1      -4.801  -3.438  21.881  0.00  0.00    +0.000 HD
ENDBRANCH   8  16
BRANCH   1  25
ATOM     24  O   UNL     1     -10.522  -9.457  16.083  0.00  0.00    +0.000 OA
ATOM     25  C   UNL     1      -9.626  -9.296  16.907  0.00  0.00    +0.000 C 
ATOM     26  N   UNL     1      -8.728 -10.261  17.324  0.00  0.00    +0.000 N 
ATOM     27  H   UNL     1      -8.150  -9.991  18.113  0.00  0.00    +0.000 HD
BRANCH  26  28
ATOM     28  C   UNL     1      -8.661 -11.584  16.838  0.00  0.00    +0.000 A 
ATOM     29  C   UNL     1      -8.554 -11.886  15.473  0.00  0.00    +0.000 A 
ATOM     30  C   UNL     1      -8.535 -13.210  15.030  0.00  0.00    +0.000 A 
ATOM     31  C   UNL     1      -8.621 -14.237  15.954  0.00  0.00    +0.000 A 
ATOM     32  F   UNL     1      -8.627 -15.507  15.530  0.00  0.00    +0.000 F 
ATOM     33  C   UNL     1      -8.701 -13.963  17.315  0.00  0.00    +0.000 A 
ATOM     34  C   UNL     1      -8.708 -12.636  17.760  0.00  0.00    +0.000 A 
ATOM     35  H   UNL     1      -8.465 -11.107  14.721  0.00  0.00    +0.000 HD
ATOM     36  H   UNL     1      -8.460 -13.432  13.970  0.00  0.00    +0.000 HD
ATOM     37  H   UNL     1      -8.770 -14.787  18.019  0.00  0.00    +0.000 HD
ATOM     38  H   UNL     1      -8.785 -12.442  18.827  0.00  0.00    +0.000 HD
ENDBRANCH  26  28
ENDBRANCH   1  25
BRANCH   6  39
ATOM     39  C   UNL     1     -11.254  -4.194  18.170  0.00  0.00    +0.000 C 
ATOM     40  F   UNL     1     -11.843  -5.014  19.065  0.00  0.00    +0.000 F 
ATOM     41  F   UNL     1     -11.430  -2.930  18.626  0.00  0.00    +0.000 F 
ATOM     42  F   UNL     1     -11.970  -4.281  17.020  0.00  0.00    +0.000 F 
ENDBRANCH   6  39
TORSDOF 4
ENDMDL
MODEL 5
REMARK VINA RESULT:    -9.694      4.539      5.537
REMARK INTER + INTRA:         -12.723
REMARK INTER:                 -11.909
REMARK INTRA:                  -0.814
REMARK UNBOUND:                -0.762
REMARK  Name = 
REMARK  4 active torsions:
REMARK  status: ('A' for Active; 'I' for Inactive)
REMARK    1  A    between atoms: C_2  and  C_11
REMARK    2  A    between atoms: N_3  and  C_4
REMARK    3  A    between atoms: C_16  and  C_17
REMARK    4  A    between atoms: C_22  and  C_23
REMARK                            x       y       z     vdW  Elec       q    Type
REMARK                         _______ _______ _______ _____ _____    ______ ____
ROOT
ATOM      1  C   UNL     1      -9.783  -5.825  15.741  0.00  0.00    +0.000 A 
ATOM      2  C   UNL     1     -10.694  -5.194  16.632  0.00  0.00    +0.000 A 
ATOM      3  C   UNL     1     -11.102  -4.064  15.988  0.00  0.00    +0.000 A 
ATOM      4  N   UNL     1     -10.498  -4.092  14.763  0.00  0.00    +0.000 N 
ATOM      5  N   UNL     1      -9.620  -5.109  14.603  0.00  0.00    +0.000 NA
ATOM      6  C   UNL     1     -10.743  -3.090  13.740  0.00  0.00    +0.000 C 
ATOM      7  C   UNL     1     -11.156  -1.763  14.413  0.00  0.00    +0.000 C 
ATOM      8  C   UNL     1     -12.295  -1.992  15.429  0.00  0.00    +0.000 C 
ATOM      9  N   UNL     1     -11.908  -3.052  16.358  0.00  0.00    +0.000 N 
ATOM     10  H   UNL     1     -10.977  -5.534  17.620  0.00  0.00    +0.000 HD
ATOM     11  H   UNL     1      -9.789  -2.933  13.223  0.00  0.00    +0.000 HD
ATOM     12  H   UNL     1     -11.446  -1.019  13.659  0.00  0.00    +0.000 HD
ATOM     13  H   UNL     1     -10.279  -1.348  14.932  0.00  0.00    +0.000 HD
ATOM     14  H   UNL     1     -13.196  -2.333  14.907  0.00  0.00    +0.000 HD
ATOM     15  H   UNL     1     -12.447  -3.094  17.222  0.00  0.00    +0.000 HD
ENDROOT
BRANCH   8  16
ATOM     16  C   UNL     1     -12.637  -0.730  16.154  0.00  0.00    +0.000 A 
ATOM     17  C   UNL     1     -13.636   0.210  15.991  0.00  0.00    +0.000 A 
ATOM     18  C   UNL     1     -13.336   1.267  16.882  0.00  0.00    +0.000 A 
ATOM     19  C   UNL     1     -12.201   0.888  17.559  0.00  0.00    +0.000 A 
ATOM     20  O   UNL     1     -11.773  -0.328  17.130  0.00  0.00    +0.000 OA
ATOM     21  H   UNL     1     -14.446   0.154  15.276  0.00  0.00    +0.000 HD
ATOM     22  H   UNL     1     -13.871   2.198  17.003  0.00  0.00    +0.000 HD
ATOM     23  H   UNL     1     -11.594   1.354  18.322  0.00  0.00    +0.000 HD
ENDBRANCH   8  16
BRANCH   1  25
ATOM     24  O   UNL     1      -7.970  -7.077  16.521  0.00  0.00    +0.000 OA
ATOM     25  C   UNL     1      -9.093  -7.092  16.028  0.00  0.00    +0.000 C 
ATOM     26  N   UNL     1      -9.797  -8.220  15.650  0.00  0.00    +0.000 N 
ATOM     27  H   UNL     1     -10.649  -8.037  15.131  0.00  0.00    +0.000 HD
BRANCH  26  28
ATOM     28  C   UNL     1      -9.358  -9.552  15.811  0.00  0.00    +0.000 A 
ATOM     29  C   UNL     1      -8.821 -10.306  14.758  0.00  0.00    +0.000 A 
ATOM     30  C   UNL     1      -8.439 -11.635  14.948  0.00  0.00    +0.000 A 
ATOM     31  C   UNL     1      -8.592 -12.214  16.197  0.00  0.00    +0.000 A 
ATOM     32  F   UNL     1      -8.249 -13.495  16.376  0.00  0.00    +0.000 F 
ATOM     33  C   UNL     1      -9.097 -11.479  17.263  0.00  0.00    +0.000 A 
ATOM     34  C   UNL     1      -9.469 -10.142  17.076  0.00  0.00    +0.000 A 
ATOM     35  H   UNL     1      -8.669  -9.880  13.771  0.00  0.00    +0.000 HD
ATOM     36  H   UNL     1      -8.032 -12.212  14.124  0.00  0.00    +0.000 HD
ATOM     37  H   UNL     1      -9.209 -11.957  18.232  0.00  0.00    +0.000 HD
ATOM     38  H   UNL     1      -9.874  -9.588  17.918  0.00  0.00    +0.000 HD
ENDBRANCH  26  28
ENDBRANCH   1  25
BRANCH   6  39
ATOM     39  C   UNL     1     -11.778  -3.589  12.742  0.00  0.00    +0.000 C 
ATOM     40  F   UNL     1     -12.538  -2.619  12.194  0.00  0.00    +0.000 F 
ATOM     41  F   UNL     1     -11.207  -4.265  11.714  0.00  0.00    +0.000 F 
ATOM     42  F   UNL     1     -12.623  -4.463  13.343  0.00  0.00    +0.000 F 
ENDBRANCH   6  39
TORSDOF 4
ENDMDL
MODEL 6
REMARK VINA RESULT:    -9.600      3.281      9.305
REMARK INTER + INTRA:         -12.607
REMARK INTER:                 -12.101
REMARK INTRA:                  -0.506
REMARK UNBOUND:                -0.762
REMARK  Name = 
REMARK  4 active torsions:
REMARK  status: ('A' for Active; 'I' for Inactive)
REMARK    1  A    between atoms: C_2  and  C_11
REMARK    2  A    between atoms: N_3  and  C_4
REMARK    3  A    between atoms: C_16  and  C_17
REMARK    4  A    between atoms: C_22  and  C_23
REMARK                            x       y       z     vdW  Elec       q    Type
REMARK                         _______ _______ _______ _____ _____    ______ ____
ROOT
ATOM      1  C   UNL     1      -8.529  -4.659  19.689  0.00  0.00    +0.000 A 
ATOM      2  C   UNL     1      -7.723  -5.696  19.142  0.00  0.00    +0.000 A 
ATOM      3  C   UNL     1      -8.474  -6.248  18.147  0.00  0.00    +0.000 A 
ATOM      4  N   UNL     1      -9.625  -5.513  18.093  0.00  0.00    +0.000 N 
ATOM      5  N   UNL     1      -9.733  -4.585  19.071  0.00  0.00    +0.000 NA
ATOM      6  C   UNL     1     -10.660  -5.741  17.100  0.00  0.00    +0.000 C 
ATOM      7  C   UNL     1     -10.615  -7.215  16.644  0.00  0.00    +0.000 C 
ATOM      8  C   UNL     1      -9.182  -7.624  16.240  0.00  0.00    +0.000 C 
ATOM      9  N   UNL     1      -8.261  -7.293  17.326  0.00  0.00    +0.000 N 
ATOM     10  H   UNL     1      -6.735  -5.991  19.469  0.00  0.00    +0.000 HD
ATOM     11  H   UNL     1     -11.618  -5.564  17.603  0.00  0.00    +0.000 HD
ATOM     12  H   UNL     1     -11.320  -7.388  15.820  0.00  0.00    +0.000 HD
ATOM     13  H   UNL     1     -10.956  -7.848  17.477  0.00  0.00    +0.000 HD
ATOM     14  H   UNL     1      -8.866  -7.049  15.362  0.00  0.00    +0.000 HD
ATOM     15  H   UNL     1      -7.357  -7.762  17.290  0.00  0.00    +0.000 HD
ENDROOT
BRANCH   8  16
ATOM     16  C   UNL     1      -9.111  -9.075  15.887  0.00  0.00    +0.000 A 
ATOM     17  C   UNL     1      -9.190  -9.758  14.690  0.00  0.00    +0.000 A 
ATOM     18  C   UNL     1      -9.219 -11.134  15.019  0.00  0.00    +0.000 A 
ATOM     19  C   UNL     1      -9.114 -11.203  16.389  0.00  0.00    +0.000 A 
ATOM     20  O   UNL     1      -9.040  -9.957  16.924  0.00  0.00    +0.000 OA
ATOM     21  H   UNL     1      -9.271  -9.309  13.709  0.00  0.00    +0.000 HD
ATOM     22  H   UNL     1      -9.322 -11.971  14.344  0.00  0.00    +0.000 HD
ATOM     23  H   UNL     1      -9.099 -12.018  17.098  0.00  0.00    +0.000 HD
ENDBRANCH   8  16
BRANCH   1  25
ATOM     24  O   UNL     1      -6.917  -3.638  21.037  0.00  0.00    +0.000 OA
ATOM     25  C   UNL     1      -8.111  -3.788  20.796  0.00  0.00    +0.000 C 
ATOM     26  N   UNL     1      -9.157  -3.239  21.514  0.00  0.00    +0.000 N 
ATOM     27  H   UNL     1     -10.076  -3.584  21.258  0.00  0.00    +0.000 HD
BRANCH  26  28
ATOM     28  C   UNL     1      -9.026  -2.374  22.622  0.00  0.00    +0.000 A 
ATOM     29  C   UNL     1      -9.002  -2.836  23.945  0.00  0.00    +0.000 A 
ATOM     30  C   UNL     1      -8.915  -1.944  25.016  0.00  0.00    +0.000 A 
ATOM     31  C   UNL     1      -8.850  -0.584  24.763  0.00  0.00    +0.000 A 
ATOM     32  F   UNL     1      -8.791   0.275  25.789  0.00  0.00    +0.000 F 
ATOM     33  C   UNL     1      -8.846  -0.103  23.459  0.00  0.00    +0.000 A 
ATOM     34  C   UNL     1      -8.920  -0.999  22.385  0.00  0.00    +0.000 A 
ATOM     35  H   UNL     1      -9.032  -3.896  24.181  0.00  0.00    +0.000 HD
ATOM     36  H   UNL     1      -8.905  -2.312  26.037  0.00  0.00    +0.000 HD
ATOM     37  H   UNL     1      -8.796   0.968  23.288  0.00  0.00    +0.000 HD
ATOM     38  H   UNL     1      -8.929  -0.603  21.373  0.00  0.00    +0.000 HD
ENDBRANCH  26  28
ENDBRANCH   1  25
BRANCH   6  39
ATOM     39  C   UNL     1     -10.513  -4.764  15.943  0.00  0.00    +0.000 C 
ATOM     40  F   UNL     1     -10.331  -3.480  16.315  0.00  0.00    +0.000 F 
ATOM     41  F   UNL     1      -9.473  -5.086  15.135  0.00  0.00    +0.000 F 
ATOM     42  F   UNL     1     -11.620  -4.797  15.160  0.00  0.00    +0.000 F 
ENDBRANCH   6  39
TORSDOF 4
ENDMDL
MODEL 7
REMARK VINA RESULT:    -9.577      2.199      2.710
REMARK INTER + INTRA:         -12.578
REMARK INTER:                 -11.832
REMARK INTRA:                  -0.746
REMARK UNBOUND:                -0.762
REMARK  Name = 
REMARK  4 active torsions:
REMARK  status: ('A' for Active; 'I' for Inactive)
REMARK    1  A    between atoms: C_2  and  C_11
REMARK    2  A    between atoms: N_3  and  C_4
REMARK    3  A    between atoms: C_16  and  C_17
REMARK    4  A    between atoms: C_22  and  C_23
REMARK                            x       y       z     vdW  Elec       q    Type
REMARK                         _______ _______ _______ _____ _____    ______ ____
ROOT
ATOM      1  C   UNL     1     -10.060  -7.561  16.774  0.00  0.00    +0.000 A 
ATOM      2  C   UNL     1     -10.090  -6.436  15.904  0.00  0.00    +0.000 A 
ATOM      3  C   UNL     1     -10.071  -5.348  16.725  0.00  0.00    +0.000 A 
ATOM      4  N   UNL     1      -9.970  -5.837  17.996  0.00  0.00    +0.000 N 
ATOM      5  N   UNL     1     -10.042  -7.185  18.075  0.00  0.00    +0.000 NA
ATOM      6  C   UNL     1      -9.843  -4.982  19.163  0.00  0.00    +0.000 C 
ATOM      7  C   UNL     1     -10.498  -3.614  18.868  0.00  0.00    +0.000 C 
ATOM      8  C   UNL     1      -9.981  -3.031  17.536  0.00  0.00    +0.000 C 
ATOM      9  N   UNL     1     -10.142  -4.027  16.477  0.00  0.00    +0.000 N 
ATOM     10  H   UNL     1     -10.140  -6.452  14.823  0.00  0.00    +0.000 HD
ATOM     11  H   UNL     1     -10.407  -5.468  19.968  0.00  0.00    +0.000 HD
ATOM     12  H   UNL     1     -10.326  -2.915  19.697  0.00  0.00    +0.000 HD
ATOM     13  H   UNL     1     -11.588  -3.756  18.807  0.00  0.00    +0.000 HD
ATOM     14  H   UNL     1      -8.909  -2.817  17.616  0.00  0.00    +0.000 HD
ATOM     15  H   UNL     1     -10.099  -3.663  15.526  0.00  0.00    +0.000 HD
ENDROOT
BRANCH   8  16
ATOM     16  C   UNL     1     -10.678  -1.754  17.195  0.00  0.00    +0.000 A 
ATOM     17  C   UNL     1     -10.685  -0.500  17.773  0.00  0.00    +0.000 A 
ATOM     18  C   UNL     1     -11.672   0.248  17.089  0.00  0.00    +0.000 A 
ATOM     19  C   UNL     1     -12.173  -0.581  16.113  0.00  0.00    +0.000 A 
ATOM     20  O   UNL     1     -11.570  -1.797  16.164  0.00  0.00    +0.000 OA
ATOM     21  H   UNL     1     -10.086  -0.190  18.620  0.00  0.00    +0.000 HD
ATOM     22  H   UNL     1     -11.990   1.260  17.293  0.00  0.00    +0.000 HD
ATOM     23  H   UNL     1     -12.935  -0.468  15.354  0.00  0.00    +0.000 HD
ENDBRANCH   8  16
BRANCH   1  25
ATOM     24  O   UNL     1     -10.940  -9.348  15.552  0.00  0.00    +0.000 OA
ATOM     25  C   UNL     1     -10.062  -8.958  16.314  0.00  0.00    +0.000 C 
ATOM     26  N   UNL     1      -9.053  -9.735  16.852  0.00  0.00    +0.000 N 
ATOM     27  H   UNL     1      -8.502  -9.279  17.572  0.00  0.00    +0.000 HD
BRANCH  26  28
ATOM     28  C   UNL     1      -8.836 -11.103  16.578  0.00  0.00    +0.000 A 
ATOM     29  C   UNL     1      -8.633 -11.593  15.281  0.00  0.00    +0.000 A 
ATOM     30  C   UNL     1      -8.467 -12.959  15.047  0.00  0.00    +0.000 A 
ATOM     31  C   UNL     1      -8.501 -13.839  16.115  0.00  0.00    +0.000 A 
ATOM     32  F   UNL     1      -8.365 -15.152  15.891  0.00  0.00    +0.000 F 
ATOM     33  C   UNL     1      -8.674 -13.375  17.414  0.00  0.00    +0.000 A 
ATOM     34  C   UNL     1      -8.829 -12.003  17.649  0.00  0.00    +0.000 A 
ATOM     35  H   UNL     1      -8.582 -10.930  14.421  0.00  0.00    +0.000 HD
ATOM     36  H   UNL     1      -8.318 -13.329  14.037  0.00  0.00    +0.000 HD
ATOM     37  H   UNL     1      -8.699 -14.087  18.234  0.00  0.00    +0.000 HD
ATOM     38  H   UNL     1      -8.977 -11.661  18.670  0.00  0.00    +0.000 HD
ENDBRANCH  26  28
ENDBRANCH   1  25
BRANCH   6  39
ATOM     39  C   UNL     1      -8.384  -4.856  19.576  0.00  0.00    +0.000 C 
ATOM     40  F   UNL     1      -7.500  -5.118  18.591  0.00  0.00    +0.000 F 
ATOM     41  F   UNL     1      -8.093  -3.616  20.041  0.00  0.00    +0.000 F 
ATOM     42  F   UNL     1      -8.111  -5.711  20.592  0.00  0.00    +0.000 F 
ENDBRANCH   6  39
TORSDOF 4
ENDMDL
MODEL 8
REMARK VINA RESULT:    -9.499      4.678      5.438
REMARK INTER + INTRA:         -12.482
REMARK INTER:                 -11.610
REMARK INTRA:                  -0.872
REMARK UNBOUND:                -0.762
REMARK  Name = 
REMARK  4 active torsions:
REMARK  status: ('A' for Active; 'I' for Inactive)
REMARK    1  A    between atoms: C_2  and  C_11
REMARK    2  A    between atoms: N_3  and  C_4
REMARK    3  A    between atoms: C_16  and  C_17
REMARK    4  A    between atoms: C_22  and  C_23
REMARK                            x       y       z     vdW  Elec       q    Type
REMARK                         _______ _______ _______ _____ _____    ______ ____
ROOT
ATOM      1  C   UNL     1      -9.950  -5.711  16.055  0.00  0.00    +0.000 A 
ATOM      2  C   UNL     1      -9.969  -4.963  14.845  0.00  0.00    +0.000 A 
ATOM      3  C   UNL     1     -10.717  -3.857  15.119  0.00  0.00    +0.000 A 
ATOM      4  N   UNL     1     -11.050  -3.946  16.441  0.00  0.00    +0.000 N 
ATOM      5  N   UNL     1     -10.670  -5.104  17.028  0.00  0.00    +0.000 NA
ATOM      6  C   UNL     1     -11.788  -2.909  17.140  0.00  0.00    +0.000 C 
ATOM      7  C   UNL     1     -12.667  -2.137  16.131  0.00  0.00    +0.000 C 
ATOM      8  C   UNL     1     -11.835  -1.680  14.914  0.00  0.00    +0.000 C 
ATOM      9  N   UNL     1     -11.126  -2.829  14.353  0.00  0.00    +0.000 N 
ATOM     10  H   UNL     1      -9.505  -5.235  13.906  0.00  0.00    +0.000 HD
ATOM     11  H   UNL     1     -12.447  -3.421  17.851  0.00  0.00    +0.000 HD
ATOM     12  H   UNL     1     -13.155  -1.283  16.616  0.00  0.00    +0.000 HD
ATOM     13  H   UNL     1     -13.475  -2.803  15.793  0.00  0.00    +0.000 HD
ATOM     14  H   UNL     1     -11.075  -0.957  15.234  0.00  0.00    +0.000 HD
ATOM     15  H   UNL     1     -10.779  -2.706  13.402  0.00  0.00    +0.000 HD
ENDROOT
BRANCH   8  16
ATOM     16  C   UNL     1     -12.695  -1.015  13.887  0.00  0.00    +0.000 A 
ATOM     17  C   UNL     1     -13.434   0.151  13.889  0.00  0.00    +0.000 A 
ATOM     18  C   UNL     1     -14.168   0.158  12.680  0.00  0.00    +0.000 A 
ATOM     19  C   UNL     1     -13.799  -0.979  12.000  0.00  0.00    +0.000 A 
ATOM     20  O   UNL     1     -12.898  -1.695  12.723  0.00  0.00    +0.000 OA
ATOM     21  H   UNL     1     -13.474   0.874  14.693  0.00  0.00    +0.000 HD
ATOM     22  H   UNL     1     -14.889   0.893  12.351  0.00  0.00    +0.000 HD
ATOM     23  H   UNL     1     -14.085  -1.410  11.052  0.00  0.00    +0.000 HD
ENDBRANCH   8  16
BRANCH   1  25
ATOM     24  O   UNL     1      -8.096  -7.005  16.646  0.00  0.00    +0.000 OA
ATOM     25  C   UNL     1      -9.247  -6.992  16.221  0.00  0.00    +0.000 C 
ATOM     26  N   UNL     1      -9.974  -8.096  15.816  0.00  0.00    +0.000 N 
ATOM     27  H   UNL     1     -10.855  -7.882  15.360  0.00  0.00    +0.000 HD
BRANCH  26  28
ATOM     28  C   UNL     1      -9.528  -9.434  15.867  0.00  0.00    +0.000 A 
ATOM     29  C   UNL     1      -9.572 -10.204  17.037  0.00  0.00    +0.000 A 
ATOM     30  C   UNL     1      -9.080 -11.510  17.056  0.00  0.00    +0.000 A 
ATOM     31  C   UNL     1      -8.545 -12.052  15.900  0.00  0.00    +0.000 A 
ATOM     32  F   UNL     1      -8.052 -13.296  15.922  0.00  0.00    +0.000 F 
ATOM     33  C   UNL     1      -8.515 -11.318  14.720  0.00  0.00    +0.000 A 
ATOM     34  C   UNL     1      -9.020 -10.012  14.697  0.00  0.00    +0.000 A 
ATOM     35  H   UNL     1     -10.001  -9.819  17.958  0.00  0.00    +0.000 HD
ATOM     36  H   UNL     1      -9.111 -12.095  17.971  0.00  0.00    +0.000 HD
ATOM     37  H   UNL     1      -8.089 -11.765  13.827  0.00  0.00    +0.000 HD
ATOM     38  H   UNL     1      -8.975  -9.449  13.769  0.00  0.00    +0.000 HD
ENDBRANCH  26  28
ENDBRANCH   1  25
BRANCH   6  39
ATOM     39  C   UNL     1     -10.836  -2.000  17.903  0.00  0.00    +0.000 C 
ATOM     40  F   UNL     1      -9.620  -1.861  17.336  0.00  0.00    +0.000 F 
ATOM     41  F   UNL     1     -11.340  -0.750  18.055  0.00  0.00    +0.000 F 
ATOM     42  F   UNL     1     -10.637  -2.479  19.157  0.00  0.00    +0.000 F 
ENDBRANCH   6  39
TORSDOF 4
ENDMDL
MODEL 9
REMARK VINA RESULT:    -9.381      4.521      5.468
REMARK INTER + INTRA:         -12.337
REMARK INTER:                 -12.151
REMARK INTRA:                  -0.186
REMARK UNBOUND:                -0.762
REMARK  Name = 
REMARK  4 active torsions:
REMARK  status: ('A' for Active; 'I' for Inactive)
REMARK    1  A    between atoms: C_2  and  C_11
REMARK    2  A    between atoms: N_3  and  C_4
REMARK    3  A    between atoms: C_16  and  C_17
REMARK    4  A    between atoms: C_22  and  C_23
REMARK                            x       y       z     vdW  Elec       q    Type
REMARK                         _______ _______ _______ _____ _____    ______ ____
ROOT
ATOM      1  C   UNL     1      -9.725  -7.244  16.279  0.00  0.00    +0.000 A 
ATOM      2  C   UNL     1      -8.839  -6.553  15.407  0.00  0.00    +0.000 A 
ATOM      3  C   UNL     1      -9.495  -5.409  15.061  0.00  0.00    +0.000 A 
ATOM      4  N   UNL     1     -10.670  -5.425  15.757  0.00  0.00    +0.000 N 
ATOM      5  N   UNL     1     -10.886  -6.567  16.450  0.00  0.00    +0.000 NA
ATOM      6  C   UNL     1     -11.624  -4.331  15.719  0.00  0.00    +0.000 C 
ATOM      7  C   UNL     1     -11.484  -3.576  14.379  0.00  0.00    +0.000 C 
ATOM      8  C   UNL     1     -10.010  -3.206  14.107  0.00  0.00    +0.000 C 
ATOM      9  N   UNL     1      -9.181  -4.404  14.223  0.00  0.00    +0.000 N 
ATOM     10  H   UNL     1      -7.863  -6.884  15.077  0.00  0.00    +0.000 HD
ATOM     11  H   UNL     1     -12.622  -4.785  15.756  0.00  0.00    +0.000 HD
ATOM     12  H   UNL     1     -12.122  -2.683  14.367  0.00  0.00    +0.000 HD
ATOM     13  H   UNL     1     -11.852  -4.228  13.572  0.00  0.00    +0.000 HD
ATOM     14  H   UNL     1      -9.660  -2.496  14.866  0.00  0.00    +0.000 HD
ATOM     15  H   UNL     1      -8.256  -4.338  13.799  0.00  0.00    +0.000 HD
ENDROOT
BRANCH   8  16
ATOM     16  C   UNL     1      -9.850  -2.559  12.769  0.00  0.00    +0.000 A 
ATOM     17  C   UNL     1      -8.889  -1.725  12.233  0.00  0.00    +0.000 A 
ATOM     18  C   UNL     1      -9.378  -1.314  10.971  0.00  0.00    +0.000 A 
ATOM     19  C   UNL     1     -10.583  -1.954  10.800  0.00  0.00    +0.000 A 
ATOM     20  O   UNL     1     -10.875  -2.719  11.883  0.00  0.00    +0.000 OA
ATOM     21  H   UNL     1      -7.976  -1.415  12.724  0.00  0.00    +0.000 HD
ATOM     22  H   UNL     1      -8.918  -0.623  10.279  0.00  0.00    +0.000 HD
ATOM     23  H   UNL     1     -11.325  -1.955  10.014  0.00  0.00    +0.000 HD
ENDBRANCH   8  16
BRANCH   1  25
ATOM     24  O   UNL     1      -9.231  -8.604  18.115  0.00  0.00    +0.000 OA
ATOM     25  C   UNL     1      -9.422  -8.540  16.904  0.00  0.00    +0.000 C 
ATOM     26  N   UNL     1      -9.332  -9.593  16.014  0.00  0.00    +0.000 N 
ATOM     27  H   UNL     1      -9.381  -9.329  15.035  0.00  0.00    +0.000 HD
BRANCH  26  28
ATOM     28  C   UNL     1      -9.049 -10.934  16.355  0.00  0.00    +0.000 A 
ATOM     29  C   UNL     1      -8.716 -11.905  15.401  0.00  0.00    +0.000 A 
ATOM     30  C   UNL     1      -8.487 -13.230  15.775  0.00  0.00    +0.000 A 
ATOM     31  C   UNL     1      -8.587 -13.586  17.109  0.00  0.00    +0.000 A 
ATOM     32  F   UNL     1      -8.390 -14.861  17.468  0.00  0.00    +0.000 F 
ATOM     33  C   UNL     1      -8.889 -12.636  18.078  0.00  0.00    +0.000 A 
ATOM     34  C   UNL     1      -9.107 -11.304  17.704  0.00  0.00    +0.000 A 
ATOM     35  H   UNL     1      -8.610 -11.658  14.348  0.00  0.00    +0.000 HD
ATOM     36  H   UNL     1      -8.237 -13.976  15.027  0.00  0.00    +0.000 HD
ATOM     37  H   UNL     1      -8.964 -12.941  19.117  0.00  0.00    +0.000 HD
ATOM     38  H   UNL     1      -9.356 -10.578  18.473  0.00  0.00    +0.000 HD
ENDBRANCH  26  28
ENDBRANCH   1  25
BRANCH   6  39
ATOM     39  C   UNL     1     -11.442  -3.422  16.925  0.00  0.00    +0.000 C 
ATOM     40  F   UNL     1     -10.195  -3.420  17.440  0.00  0.00    +0.000 F 
ATOM     41  F   UNL     1     -11.747  -2.132  16.640  0.00  0.00    +0.000 F 
ATOM     42  F   UNL     1     -12.283  -3.794  17.922  0.00  0.00    +0.000 F 
ENDBRANCH   6  39
TORSDOF 4
ENDMDL
