REMARK  Name = 
REMARK  7 active torsions:
REMARK  status: ('A' for Active; 'I' for Inactive)
REMARK    1  A    between atoms: C_1  and  C_2
REMARK    2  A    between atoms: C_6  and  N_7
REMARK    3  A    between atoms: N_7  and  C_8
REMARK    4  A    between atoms: N_13  and  C_14
REMARK    5  A    between atoms: C_14  and  C_15
REMARK    6  A    between atoms: C_14  and  C_16
REMARK    7  A    between atoms: C_17  and  N_18
REMARK                            x       y       z     vdW  Elec       q    Type
REMARK                         _______ _______ _______ _____ _____    ______ ____
ROOT
ATOM      1  C   UNL     1      -0.153   0.371   0.359  0.00  0.00    +0.000 A 
ATOM      2  N   UNL     1      -0.338   1.347  -0.537  0.00  0.00    +0.000 N 
ATOM      3  C   UNL     1      -1.263   2.277  -0.339  0.00  0.00    +0.000 A 
ATOM      4  N   UNL     1      -2.016   2.371   0.764  0.00  0.00    +0.000 NA
ATOM      5  C   UNL     1      -1.840   1.431   1.713  0.00  0.00    +0.000 A 
ATOM      6  N   UNL     1      -2.554   1.542   2.912  0.00  0.00    +0.000 N 
ATOM      7  C   UNL     1      -0.896   0.387   1.559  0.00  0.00    +0.000 A 
ATOM      8  H   UNL     1       0.220   1.338  -1.384  0.00  0.00    +0.000 HD
ATOM      9  H   UNL     1      -1.435   2.992  -1.137  0.00  0.00    +0.000 HD
ATOM     10  H   UNL     1      -3.083   0.704   3.135  0.00  0.00    +0.000 HD
ENDROOT
BRANCH   7  11
ATOM     11  N   UNL     1      -0.802  -0.702   2.463  0.00  0.00    +0.000 N 
ATOM     12  H   UNL     1      -1.351  -0.562   3.312  0.00  0.00    +0.000 HD
ATOM     13  H   UNL     1       0.155  -0.950   2.717  0.00  0.00    +0.000 HD
ENDBRANCH   7  11
BRANCH   1  14
ATOM     14  N   UNL     1       0.779  -0.657   0.057  0.00  0.00    +0.000 N 
ATOM     15  H   UNL     1       0.589  -1.452   0.677  0.00  0.00    +0.000 HD
BRANCH  14  20
ATOM     16  C   UNL     1       4.538  -2.508  -2.956  0.00  0.00    +0.000 A 
ATOM     17  C   UNL     1       4.554  -2.166  -1.613  0.00  0.00    +0.000 A 
ATOM     18  C   UNL     1       3.372  -1.727  -1.017  0.00  0.00    +0.000 A 
ATOM     19  C   UNL     1       2.175  -1.651  -1.761  0.00  0.00    +0.000 A 
ATOM     20  C   UNL     1       0.919  -1.175  -1.272  0.00  0.00    +0.000 A 
ATOM     21  C   UNL     1      -0.228  -1.283  -2.078  0.00  0.00    +0.000 A 
ATOM     22  C   UNL     1      -0.127  -1.709  -3.390  0.00  0.00    +0.000 A 
ATOM     23  C   UNL     1       1.114  -2.082  -3.888  0.00  0.00    +0.000 A 
ATOM     24  C   UNL     1       2.260  -2.074  -3.104  0.00  0.00    +0.000 A 
ATOM     25  N   UNL     1       3.400  -2.473  -3.684  0.00  0.00    +0.000 NA
ATOM     26  H   UNL     1       5.477  -2.237  -1.035  0.00  0.00    +0.000 HD
ATOM     27  H   UNL     1       3.393  -1.455   0.036  0.00  0.00    +0.000 HD
ATOM     28  H   UNL     1      -1.220  -1.041  -1.702  0.00  0.00    +0.000 HD
ATOM     29  H   UNL     1      -1.006  -1.776  -4.027  0.00  0.00    +0.000 HD
ATOM     30  H   UNL     1       1.198  -2.418  -4.915  0.00  0.00    +0.000 HD
BRANCH  16  31
ATOM     31  C   UNL     1       5.773  -2.952  -3.679  0.00  0.00    +0.000 C 
ATOM     32  H   UNL     1       6.676  -2.766  -3.090  0.00  0.00    +0.000 HD
ATOM     33  H   UNL     1       5.874  -2.400  -4.622  0.00  0.00    +0.000 HD
ATOM     34  H   UNL     1       5.713  -4.023  -3.897  0.00  0.00    +0.000 HD
ENDBRANCH  16  31
ENDBRANCH  14  20
ENDBRANCH   1  14
BRANCH   6  35
ATOM     35  C   UNL     1      -3.296   2.788   3.184  0.00  0.00    +0.000 C 
ATOM     36  H   UNL     1      -2.700   3.658   2.877  0.00  0.00    +0.000 HD
BRANCH  35  37
ATOM     37  C   UNL     1      -4.654   2.832   2.484  0.00  0.00    +0.000 C 
ATOM     38  H   UNL     1      -5.330   2.062   2.872  0.00  0.00    +0.000 HD
ATOM     39  H   UNL     1      -4.571   2.688   1.404  0.00  0.00    +0.000 HD
ATOM     40  H   UNL     1      -5.133   3.806   2.650  0.00  0.00    +0.000 HD
ENDBRANCH  35  37
BRANCH  35  41
ATOM     41  C   UNL     1      -3.506   2.891   4.697  0.00  0.00    +0.000 C 
ATOM     42  H   UNL     1      -4.141   2.077   5.065  0.00  0.00    +0.000 HD
ATOM     43  H   UNL     1      -3.985   3.840   4.963  0.00  0.00    +0.000 HD
ATOM     44  H   UNL     1      -2.551   2.832   5.229  0.00  0.00    +0.000 HD
ENDBRANCH  35  41
ENDBRANCH   6  35
TORSDOF 7
