
 OpenBabel01112423093D

 49 49  0  0  0  0  0  0  0  0999 V2000
    4.1332    5.4929    0.6171 C   0  0  0  0  0  0  0  0  0  0  0  0
    4.2918    4.1815    1.3873 C   0  0  0  0  0  0  0  0  0  0  0  0
    2.9359    3.5097    1.5575 C   0  0  0  0  0  0  0  0  0  0  0  0
    5.2394    3.3251    0.5957 N   0  3  0  0  0  0  0  0  0  0  0  0
    5.6239    2.0199    1.1427 C   0  0  0  0  0  0  0  0  0  0  0  0
    5.8346    0.9724    0.2405 C   0  0  0  0  0  0  0  0  0  0  0  0
    6.2985   -0.2642    0.6982 C   0  0  0  0  0  0  0  0  0  0  0  0
    6.5962   -0.4425    2.0512 C   0  0  0  0  0  0  0  0  0  0  0  0
    6.4447    0.6209    2.9513 C   0  0  0  0  0  0  0  0  0  0  0  0
    6.9247    0.4891    4.3803 C   0  0  0  0  0  0  0  0  0  0  0  0
    8.2966    0.9351    4.5052 N   0  0  0  0  0  0  0  0  0  0  0  0
    8.6119    2.2333    4.8130 C   0  0  0  0  0  0  0  0  0  0  0  0
    7.7811    3.1235    4.9690 O   0  0  0  0  0  0  0  0  0  0  0  0
    9.9730    2.4431    4.8820 N   0  0  0  0  0  0  0  0  0  0  0  0
   10.4280    3.7229    5.2456 N   0  0  0  0  0  0  0  0  0  0  0  0
   11.7944    3.9396    5.3158 C   0  0  0  0  0  0  0  0  0  0  0  0
   12.5890    3.0151    5.1403 O   0  0  0  0  0  0  0  0  0  0  0  0
   12.2277    5.3905    5.6003 C   0  0  0  0  0  0  0  0  0  0  0  0
   11.6662    5.8634    6.9484 C   0  0  0  0  0  0  0  0  0  0  0  0
   13.7648    5.4700    5.6454 C   0  0  0  0  0  0  0  0  0  0  0  0
   11.7256    6.3150    4.4811 C   0  0  0  0  0  0  0  0  0  0  0  0
    5.9354    1.8493    2.4916 C   0  0  0  0  0  0  0  0  0  0  0  0
    3.4387    6.1641    1.1348 H   0  0  0  0  0  0  0  0  0  0  0  0
    3.7449    5.3225   -0.3924 H   0  0  0  0  0  0  0  0  0  0  0  0
    5.0930    6.0150    0.5285 H   0  0  0  0  0  0  0  0  0  0  0  0
    4.7521    4.3982    2.3559 H   0  0  0  0  0  0  0  0  0  0  0  0
    2.5743    3.0671    0.6238 H   0  0  0  0  0  0  0  0  0  0  0  0
    2.1875    4.2346    1.8946 H   0  0  0  0  0  0  0  0  0  0  0  0
    2.9774    2.7192    2.3179 H   0  0  0  0  0  0  0  0  0  0  0  0
    6.1227    3.8361    0.4538 H   0  0  0  0  0  0  0  0  0  0  0  0
    4.8447    3.1720   -0.3399 H   0  0  0  0  0  0  0  0  0  0  0  0
    5.6790    1.0914   -0.8243 H   0  0  0  0  0  0  0  0  0  0  0  0
    6.4569   -1.0865   -0.0012 H   0  0  0  0  0  0  0  0  0  0  0  0
    6.9725   -1.4070    2.3893 H   0  0  0  0  0  0  0  0  0  0  0  0
    6.8853   -0.5570    4.7027 H   0  0  0  0  0  0  0  0  0  0  0  0
    6.2773    1.0640    5.0532 H   0  0  0  0  0  0  0  0  0  0  0  0
    9.0111    0.3957    4.0372 H   0  0  0  0  0  0  0  0  0  0  0  0
   10.5996    1.6820    5.1320 H   0  0  0  0  0  0  0  0  0  0  0  0
    9.7237    4.4325    5.4171 H   0  0  0  0  0  0  0  0  0  0  0  0
   12.0198    5.2282    7.7680 H   0  0  0  0  0  0  0  0  0  0  0  0
   10.5716    5.8416    6.9663 H   0  0  0  0  0  0  0  0  0  0  0  0
   11.9752    6.8933    7.1639 H   0  0  0  0  0  0  0  0  0  0  0  0
   14.1719    4.8362    6.4403 H   0  0  0  0  0  0  0  0  0  0  0  0
   14.1061    6.4965    5.8267 H   0  0  0  0  0  0  0  0  0  0  0  0
   14.2076    5.1351    4.6999 H   0  0  0  0  0  0  0  0  0  0  0  0
   10.6329    6.3186    4.4118 H   0  0  0  0  0  0  0  0  0  0  0  0
   12.1145    6.0004    3.5055 H   0  0  0  0  0  0  0  0  0  0  0  0
   12.0463    7.3498    4.6505 H   0  0  0  0  0  0  0  0  0  0  0  0
    5.8346    2.6593    3.2068 H   0  0  0  0  0  0  0  0  0  0  0  0
  1  2  1  0  0  0  0
  1 23  1  0  0  0  0
  1 24  1  0  0  0  0
  1 25  1  0  0  0  0
  2  3  1  0  0  0  0
  2  4  1  0  0  0  0
  2 26  1  0  0  0  0
  3 27  1  0  0  0  0
  3 28  1  0  0  0  0
  3 29  1  0  0  0  0
  4  5  1  0  0  0  0
  4 30  1  0  0  0  0
  4 31  1  0  0  0  0
  5  6  1  0  0  0  0
  5 22  2  0  0  0  0
  6  7  2  0  0  0  0
  6 32  1  0  0  0  0
  7  8  1  0  0  0  0
  7 33  1  0  0  0  0
  8  9  2  0  0  0  0
  8 34  1  0  0  0  0
  9 10  1  0  0  0  0
  9 22  1  0  0  0  0
 10 11  1  0  0  0  0
 10 35  1  0  0  0  0
 10 36  1  0  0  0  0
 11 12  1  0  0  0  0
 11 37  1  0  0  0  0
 12 13  2  0  0  0  0
 12 14  1  0  0  0  0
 14 15  1  0  0  0  0
 14 38  1  0  0  0  0
 15 16  1  0  0  0  0
 15 39  1  0  0  0  0
 16 17  2  0  0  0  0
 16 18  1  0  0  0  0
 18 19  1  0  0  0  0
 18 20  1  0  0  0  0
 18 21  1  0  0  0  0
 19 40  1  0  0  0  0
 19 41  1  0  0  0  0
 19 42  1  0  0  0  0
 20 43  1  0  0  0  0
 20 44  1  0  0  0  0
 20 45  1  0  0  0  0
 21 46  1  0  0  0  0
 21 47  1  0  0  0  0
 21 48  1  0  0  0  0
 22 49  1  0  0  0  0
M  CHG  1   4   1
M  END
$$$$
