
 OpenBabel01112423133D

 51 54  0  0  1  0  0  0  0  0999 V2000
    5.1124   -0.3459   -2.2747 O   0  0  0  0  0  0  0  0  0  0  0  0
    4.7070    0.0205   -3.3661 C   0  0  0  0  0  0  0  0  0  0  0  0
    3.4191    0.4354   -3.6207 N   0  0  0  0  0  0  0  0  0  0  0  0
    2.3935    0.4422   -2.5889 C   0  0  1  0  0  0  0  0  0  0  0  0
    1.3652    1.5364   -2.8798 C   0  0  0  0  0  0  0  0  0  0  0  0
    0.4932    1.2001   -4.0848 C   0  0  0  0  0  0  0  0  0  0  0  0
   -0.1992   -0.1428   -3.9047 C   0  0  0  0  0  0  0  0  0  0  0  0
    0.7884   -1.2841   -3.6165 C   0  0  2  0  0  0  0  0  0  0  0  0
    0.0373   -2.5862   -3.3320 C   0  0  0  0  0  0  0  0  0  0  0  0
   -1.3030   -2.4216   -3.4146 F   0  0  0  0  0  0  0  0  0  0  0  0
    0.3772   -3.5425   -4.2245 F   0  0  0  0  0  0  0  0  0  0  0  0
    0.3041   -3.0690   -2.1004 F   0  0  0  0  0  0  0  0  0  0  0  0
    1.7286   -0.9314   -2.4504 C   0  0  0  0  0  0  0  0  0  0  0  0
    5.6071    0.0075   -4.5452 C   0  0  0  0  0  0  0  0  0  0  0  0
    6.6192   -0.9573   -4.5860 C   0  0  0  0  0  0  0  0  0  0  0  0
    7.4546   -1.0393   -5.6985 C   0  0  0  0  0  0  0  0  0  0  0  0
    7.3196   -0.1113   -6.7346 C   0  0  0  0  0  0  0  0  0  0  0  0
    8.2250   -0.1517   -7.9019 C   0  0  0  0  0  0  0  0  0  0  0  0
    8.9515   -1.1294   -8.0287 O   0  0  0  0  0  0  0  0  0  0  0  0
    8.1372    0.9276   -8.7957 N   0  0  0  0  0  0  0  0  0  0  0  0
    9.0344    0.9433   -9.9051 C   0  0  0  0  0  0  0  0  0  0  0  0
    8.5393    0.9972  -11.2159 C   0  0  0  0  0  0  0  0  0  0  0  0
    9.4140    0.9408  -12.3028 C   0  0  0  0  0  0  0  0  0  0  0  0
   10.7888    0.8550  -12.0900 C   0  0  0  0  0  0  0  0  0  0  0  0
   11.2923    0.8414  -10.7899 C   0  0  0  0  0  0  0  0  0  0  0  0
   10.4193    0.8797   -9.7002 C   0  0  0  0  0  0  0  0  0  0  0  0
    7.1930    1.9450   -8.6893 C   0  0  0  0  0  0  0  0  0  0  0  0
    7.1052    2.9267   -9.4350 O   0  0  0  0  0  0  0  0  0  0  0  0
    6.3083    1.8662   -7.6473 N   0  0  0  0  0  0  0  0  0  0  0  0
    6.3570    0.8882   -6.6609 C   0  0  0  0  0  0  0  0  0  0  0  0
    5.4707    0.9375   -5.5867 C   0  0  0  0  0  0  0  0  0  0  0  0
    3.1370    0.5933   -4.5759 H   0  0  0  0  0  0  0  0  0  0  0  0
    2.8863    0.6800   -1.6390 H   0  0  0  0  0  0  0  0  0  0  0  0
    1.8706    2.4941   -3.0512 H   0  0  0  0  0  0  0  0  0  0  0  0
    0.7230    1.6658   -1.9998 H   0  0  0  0  0  0  0  0  0  0  0  0
    1.0984    1.1805   -4.9983 H   0  0  0  0  0  0  0  0  0  0  0  0
   -0.2583    1.9853   -4.2240 H   0  0  0  0  0  0  0  0  0  0  0  0
   -0.7739   -0.3721   -4.8099 H   0  0  0  0  0  0  0  0  0  0  0  0
   -0.9222   -0.0630   -3.0810 H   0  0  0  0  0  0  0  0  0  0  0  0
    1.3993   -1.4339   -4.5185 H   0  0  0  0  0  0  0  0  0  0  0  0
    2.4904   -1.7162   -2.3444 H   0  0  0  0  0  0  0  0  0  0  0  0
    1.1497   -0.9299   -1.5171 H   0  0  0  0  0  0  0  0  0  0  0  0
    6.7517   -1.6472   -3.7537 H   0  0  0  0  0  0  0  0  0  0  0  0
    8.2215   -1.8099   -5.7405 H   0  0  0  0  0  0  0  0  0  0  0  0
    7.4707    1.0481  -11.4020 H   0  0  0  0  0  0  0  0  0  0  0  0
    9.0204    0.9603  -13.3159 H   0  0  0  0  0  0  0  0  0  0  0  0
   11.4677    0.7976  -12.9366 H   0  0  0  0  0  0  0  0  0  0  0  0
   12.3650    0.7862  -10.6228 H   0  0  0  0  0  0  0  0  0  0  0  0
   10.8307    0.8745   -8.6946 H   0  0  0  0  0  0  0  0  0  0  0  0
    5.6550    2.6373   -7.5905 H   0  0  0  0  0  0  0  0  0  0  0  0
    4.7156    1.7168   -5.5349 H   0  0  0  0  0  0  0  0  0  0  0  0
  1  2  2  0  0  0  0
  2  3  1  0  0  0  0
  2 14  1  0  0  0  0
  3 32  1  0  0  0  0
  4  5  1  0  0  0  0
  4 13  1  0  0  0  0
  4  3  1  0  0  0  0
  4 33  1  1  0  0  0
  5  6  1  0  0  0  0
  5 34  1  0  0  0  0
  5 35  1  0  0  0  0
  6  7  1  0  0  0  0
  6 36  1  0  0  0  0
  6 37  1  0  0  0  0
  7  8  1  0  0  0  0
  7 38  1  0  0  0  0
  7 39  1  0  0  0  0
  8 13  1  0  0  0  0
  8  9  1  0  0  0  0
  8 40  1  6  0  0  0
  9 10  1  0  0  0  0
  9 11  1  0  0  0  0
  9 12  1  0  0  0  0
 13 41  1  0  0  0  0
 13 42  1  0  0  0  0
 14 15  1  0  0  0  0
 14 31  2  0  0  0  0
 15 16  2  0  0  0  0
 15 43  1  0  0  0  0
 16 17  1  0  0  0  0
 16 44  1  0  0  0  0
 17 18  1  0  0  0  0
 17 30  2  0  0  0  0
 18 19  2  0  0  0  0
 18 20  1  0  0  0  0
 20 21  1  0  0  0  0
 20 27  1  0  0  0  0
 21 22  1  0  0  0  0
 21 26  2  0  0  0  0
 22 23  2  0  0  0  0
 22 45  1  0  0  0  0
 23 24  1  0  0  0  0
 23 46  1  0  0  0  0
 24 25  2  0  0  0  0
 24 47  1  0  0  0  0
 25 26  1  0  0  0  0
 25 48  1  0  0  0  0
 26 49  1  0  0  0  0
 27 28  2  0  0  0  0
 27 29  1  0  0  0  0
 29 30  1  0  0  0  0
 29 50  1  0  0  0  0
 30 31  1  0  0  0  0
 31 51  1  0  0  0  0
M  END
$$$$
