MODEL 1
REMARK VINA RESULT:   -10.863      0.000      0.000
REMARK INTER + INTRA:         -14.541
REMARK INTER:                 -14.038
REMARK INTRA:                  -0.502
REMARK UNBOUND:                -0.502
REMARK  Name = 
REMARK  6 active torsions:
REMARK  status: ('A' for Active; 'I' for Inactive)
REMARK    1  A    between atoms: C_1  and  C_2
REMARK    2  A    between atoms: C_5  and  N_6
REMARK    3  A    between atoms: C_7  and  C_9
REMARK    4  A    between atoms: N_11  and  C_12
REMARK    5  A    between atoms: C_19  and  C_21
REMARK    6  A    between atoms: C_27  and  C_28
REMARK                            x       y       z     vdW  Elec       q    Type
REMARK                         _______ _______ _______ _____ _____    ______ ____
ROOT
ATOM      1  C   UNL     1      -9.463  -3.166  18.855  0.00  0.00    +0.000 A 
ATOM      2  C   UNL     1      -9.612  -2.049  18.035  0.00  0.00    +0.000 A 
ATOM      3  C   UNL     1     -10.052  -0.846  18.574  0.00  0.00    +0.000 A 
ATOM      4  C   UNL     1     -10.323  -0.728  19.945  0.00  0.00    +0.000 A 
ATOM      5  C   UNL     1     -10.137  -1.838  20.795  0.00  0.00    +0.000 A 
ATOM      6  C   UNL     1      -9.733  -3.057  20.226  0.00  0.00    +0.000 A 
ATOM      7  N   UNL     1     -10.377  -1.696  22.209  0.00  0.00    +0.000 N 
ATOM      8  C   UNL     1      -9.651  -2.445  23.152  0.00  0.00    +0.000 C 
ATOM      9  O   UNL     1      -8.774  -3.257  22.871  0.00  0.00    +0.000 OA
ATOM     10  C   UNL     1     -11.306  -0.611  22.553  0.00  0.00    +0.000 C 
ATOM     11  C   UNL     1     -10.828   0.702  21.963  0.00  0.00    +0.000 C 
ATOM     12  C   UNL     1     -10.816   0.604  20.447  0.00  0.00    +0.000 C 
ATOM     13  H   UNL     1      -9.428  -2.093  16.968  0.00  0.00    +0.000 HD
ATOM     14  H   UNL     1     -10.179   0.010  17.914  0.00  0.00    +0.000 HD
ATOM     15  H   UNL     1      -9.636  -3.941  20.850  0.00  0.00    +0.000 HD
ATOM     16  H   UNL     1     -11.428  -0.485  23.627  0.00  0.00    +0.000 HD
ATOM     17  H   UNL     1     -12.294  -0.886  22.155  0.00  0.00    +0.000 HD
ATOM     18  H   UNL     1      -9.820   0.924  22.333  0.00  0.00    +0.000 HD
ATOM     19  H   UNL     1     -11.480   1.525  22.275  0.00  0.00    +0.000 HD
ATOM     20  H   UNL     1     -10.191   1.411  20.045  0.00  0.00    +0.000 HD
ATOM     21  H   UNL     1     -11.834   0.751  20.064  0.00  0.00    +0.000 HD
ENDROOT
BRANCH   8  22
ATOM     22  C   UNL     1      -9.897  -2.183  24.613  0.00  0.00    +0.000 C 
ATOM     23  C   UNL     1      -9.086  -1.105  25.305  0.00  0.00    +0.000 C 
ATOM     24  C   UNL     1      -8.857  -2.545  25.655  0.00  0.00    +0.000 C 
ATOM     25  H   UNL     1     -10.904  -2.367  24.965  0.00  0.00    +0.000 HD
ATOM     26  H   UNL     1      -9.579  -0.474  26.033  0.00  0.00    +0.000 HD
ATOM     27  H   UNL     1      -8.295  -0.607  24.750  0.00  0.00    +0.000 HD
ATOM     28  H   UNL     1      -9.207  -2.892  26.620  0.00  0.00    +0.000 HD
ATOM     29  H   UNL     1      -7.935  -3.012  25.328  0.00  0.00    +0.000 HD
ENDBRANCH   8  22
BRANCH   1  32
ATOM     30  C   UNL     1      -9.893  -5.411  17.866  0.00  0.00    +0.000 C 
ATOM     31  O   UNL     1     -11.106  -5.405  17.701  0.00  0.00    +0.000 OA
ATOM     32  N   UNL     1      -9.072  -4.421  18.361  0.00  0.00    +0.000 N 
ATOM     33  H   UNL     1      -8.075  -4.625  18.310  0.00  0.00    +0.000 HD
BRANCH  30  35
ATOM     34  N   UNL     1      -9.939  -7.732  17.180  0.00  0.00    +0.000 N 
ATOM     35  C   UNL     1      -9.108  -6.660  17.437  0.00  0.00    +0.000 C 
ATOM     36  O   UNL     1      -7.890  -6.570  17.358  0.00  0.00    +0.000 OA
ATOM     37  H   UNL     1     -10.922  -7.524  17.324  0.00  0.00    +0.000 HD
BRANCH  34  41
ATOM     38  C   UNL     1      -8.839 -11.615  15.885  0.00  0.00    +0.000 A 
ATOM     39  C   UNL     1      -9.366 -10.691  14.987  0.00  0.00    +0.000 A 
ATOM     40  C   UNL     1      -9.728  -9.416  15.421  0.00  0.00    +0.000 A 
ATOM     41  C   UNL     1      -9.575  -9.027  16.761  0.00  0.00    +0.000 A 
ATOM     42  C   UNL     1      -9.050  -9.957  17.682  0.00  0.00    +0.000 A 
ATOM     43  C   UNL     1      -8.688 -11.243  17.223  0.00  0.00    +0.000 A 
ATOM     44  H   UNL     1      -9.502 -10.946  13.939  0.00  0.00    +0.000 HD
ATOM     45  H   UNL     1     -10.129  -8.744  14.668  0.00  0.00    +0.000 HD
ATOM     46  H   UNL     1      -8.276 -11.965  17.929  0.00  0.00    +0.000 HD
BRANCH  38  47
ATOM     47  C   UNL     1      -8.445 -12.986  15.422  0.00  0.00    +0.000 C 
ATOM     48  H   UNL     1      -8.995 -13.764  15.964  0.00  0.00    +0.000 HD
ATOM     49  H   UNL     1      -7.377 -13.151  15.596  0.00  0.00    +0.000 HD
ATOM     50  H   UNL     1      -8.664 -13.103  14.357  0.00  0.00    +0.000 HD
ENDBRANCH  38  47
BRANCH  42  51
ATOM     51  C   UNL     1      -8.833  -9.693  19.149  0.00  0.00    +0.000 C 
ATOM     52  H   UNL     1      -8.773 -10.592  19.763  0.00  0.00    +0.000 HD
ATOM     53  H   UNL     1      -9.652  -9.081  19.541  0.00  0.00    +0.000 HD
ATOM     54  H   UNL     1      -7.892  -9.149  19.290  0.00  0.00    +0.000 HD
ENDBRANCH  42  51
ENDBRANCH  34  41
ENDBRANCH  30  35
ENDBRANCH   1  32
TORSDOF 6
ENDMDL
MODEL 2
REMARK VINA RESULT:   -10.599      1.880      2.607
REMARK INTER + INTRA:         -14.200
REMARK INTER:                 -13.987
REMARK INTRA:                  -0.213
REMARK UNBOUND:                -0.502
REMARK  Name = 
REMARK  6 active torsions:
REMARK  status: ('A' for Active; 'I' for Inactive)
REMARK    1  A    between atoms: C_1  and  C_2
REMARK    2  A    between atoms: C_5  and  N_6
REMARK    3  A    between atoms: C_7  and  C_9
REMARK    4  A    between atoms: N_11  and  C_12
REMARK    5  A    between atoms: C_19  and  C_21
REMARK    6  A    between atoms: C_27  and  C_28
REMARK                            x       y       z     vdW  Elec       q    Type
REMARK                         _______ _______ _______ _____ _____    ______ ____
ROOT
ATOM      1  C   UNL     1     -10.795  -4.928  17.607  0.00  0.00    +0.000 A 
ATOM      2  C   UNL     1     -11.526  -3.981  16.892  0.00  0.00    +0.000 A 
ATOM      3  C   UNL     1     -11.566  -2.661  17.327  0.00  0.00    +0.000 A 
ATOM      4  C   UNL     1     -10.853  -2.258  18.465  0.00  0.00    +0.000 A 
ATOM      5  C   UNL     1     -10.074  -3.195  19.175  0.00  0.00    +0.000 A 
ATOM      6  C   UNL     1     -10.080  -4.532  18.746  0.00  0.00    +0.000 A 
ATOM      7  N   UNL     1      -9.312  -2.762  20.318  0.00  0.00    +0.000 N 
ATOM      8  C   UNL     1      -8.094  -3.378  20.661  0.00  0.00    +0.000 C 
ATOM      9  O   UNL     1      -7.584  -4.305  20.039  0.00  0.00    +0.000 OA
ATOM     10  C   UNL     1      -9.836  -1.551  20.964  0.00  0.00    +0.000 C 
ATOM     11  C   UNL     1      -9.962  -0.425  19.956  0.00  0.00    +0.000 C 
ATOM     12  C   UNL     1     -10.964  -0.814  18.883  0.00  0.00    +0.000 C 
ATOM     13  H   UNL     1     -12.103  -4.246  16.014  0.00  0.00    +0.000 HD
ATOM     14  H   UNL     1     -12.156  -1.941  16.765  0.00  0.00    +0.000 HD
ATOM     15  H   UNL     1      -9.533  -5.284  19.308  0.00  0.00    +0.000 HD
ATOM     16  H   UNL     1      -9.213  -1.209  21.789  0.00  0.00    +0.000 HD
ATOM     17  H   UNL     1     -10.815  -1.806  21.395  0.00  0.00    +0.000 HD
ATOM     18  H   UNL     1      -8.983  -0.229  19.501  0.00  0.00    +0.000 HD
ATOM     19  H   UNL     1     -10.287   0.499  20.446  0.00  0.00    +0.000 HD
ATOM     20  H   UNL     1     -10.824  -0.160  18.013  0.00  0.00    +0.000 HD
ATOM     21  H   UNL     1     -11.983  -0.651  19.258  0.00  0.00    +0.000 HD
ENDROOT
BRANCH   8  22
ATOM     22  C   UNL     1      -7.312  -2.818  21.817  0.00  0.00    +0.000 C 
ATOM     23  C   UNL     1      -6.216  -3.667  22.433  0.00  0.00    +0.000 C 
ATOM     24  C   UNL     1      -7.467  -3.389  23.212  0.00  0.00    +0.000 C 
ATOM     25  H   UNL     1      -7.191  -1.742  21.831  0.00  0.00    +0.000 HD
ATOM     26  H   UNL     1      -5.301  -3.181  22.746  0.00  0.00    +0.000 HD
ATOM     27  H   UNL     1      -6.079  -4.684  22.077  0.00  0.00    +0.000 HD
ATOM     28  H   UNL     1      -7.399  -2.706  24.050  0.00  0.00    +0.000 HD
ATOM     29  H   UNL     1      -8.166  -4.204  23.365  0.00  0.00    +0.000 HD
ENDBRANCH   8  22
BRANCH   1  32
ATOM     30  C   UNL     1      -9.710  -6.958  16.654  0.00  0.00    +0.000 C 
ATOM     31  O   UNL     1      -8.592  -6.555  16.362  0.00  0.00    +0.000 OA
ATOM     32  N   UNL     1     -10.758  -6.284  17.247  0.00  0.00    +0.000 N 
ATOM     33  H   UNL     1     -11.562  -6.864  17.481  0.00  0.00    +0.000 HD
BRANCH  30  35
ATOM     34  N   UNL     1      -8.918  -9.233  16.414  0.00  0.00    +0.000 N 
ATOM     35  C   UNL     1     -10.043  -8.433  16.386  0.00  0.00    +0.000 C 
ATOM     36  O   UNL     1     -11.216  -8.730  16.200  0.00  0.00    +0.000 OA
ATOM     37  H   UNL     1      -8.062  -8.718  16.596  0.00  0.00    +0.000 HD
BRANCH  34  41
ATOM     38  C   UNL     1      -8.679 -13.419  15.795  0.00  0.00    +0.000 A 
ATOM     39  C   UNL     1      -8.860 -12.552  14.721  0.00  0.00    +0.000 A 
ATOM     40  C   UNL     1      -8.941 -11.176  14.932  0.00  0.00    +0.000 A 
ATOM     41  C   UNL     1      -8.842 -10.626  16.220  0.00  0.00    +0.000 A 
ATOM     42  C   UNL     1      -8.667 -11.493  17.317  0.00  0.00    +0.000 A 
ATOM     43  C   UNL     1      -8.586 -12.884  17.083  0.00  0.00    +0.000 A 
ATOM     44  H   UNL     1      -8.941 -12.932  13.705  0.00  0.00    +0.000 HD
ATOM     45  H   UNL     1      -9.079 -10.558  14.050  0.00  0.00    +0.000 HD
ATOM     46  H   UNL     1      -8.445 -13.561  17.926  0.00  0.00    +0.000 HD
BRANCH  38  47
ATOM     47  C   UNL     1      -8.588 -14.899  15.571  0.00  0.00    +0.000 C 
ATOM     48  H   UNL     1      -8.078 -15.130  14.630  0.00  0.00    +0.000 HD
ATOM     49  H   UNL     1      -9.591 -15.335  15.523  0.00  0.00    +0.000 HD
ATOM     50  H   UNL     1      -8.024 -15.369  16.381  0.00  0.00    +0.000 HD
ENDBRANCH  38  47
BRANCH  42  51
ATOM     51  C   UNL     1      -8.552 -11.058  18.754  0.00  0.00    +0.000 C 
ATOM     52  H   UNL     1      -9.205 -10.228  19.026  0.00  0.00    +0.000 HD
ATOM     53  H   UNL     1      -7.523 -10.750  18.968  0.00  0.00    +0.000 HD
ATOM     54  H   UNL     1      -8.810 -11.894  19.414  0.00  0.00    +0.000 HD
ENDBRANCH  42  51
ENDBRANCH  34  41
ENDBRANCH  30  35
ENDBRANCH   1  32
TORSDOF 6
ENDMDL
MODEL 3
REMARK VINA RESULT:   -10.599      4.612      7.028
REMARK INTER + INTRA:         -14.199
REMARK INTER:                 -13.624
REMARK INTRA:                  -0.575
REMARK UNBOUND:                -0.502
REMARK  Name = 
REMARK  6 active torsions:
REMARK  status: ('A' for Active; 'I' for Inactive)
REMARK    1  A    between atoms: C_1  and  C_2
REMARK    2  A    between atoms: C_5  and  N_6
REMARK    3  A    between atoms: C_7  and  C_9
REMARK    4  A    between atoms: N_11  and  C_12
REMARK    5  A    between atoms: C_19  and  C_21
REMARK    6  A    between atoms: C_27  and  C_28
REMARK                            x       y       z     vdW  Elec       q    Type
REMARK                         _______ _______ _______ _____ _____    ______ ____
ROOT
ATOM      1  C   UNL     1     -11.530  -4.919  15.870  0.00  0.00    +0.000 A 
ATOM      2  C   UNL     1     -11.938  -4.155  16.962  0.00  0.00    +0.000 A 
ATOM      3  C   UNL     1     -12.029  -2.773  16.847  0.00  0.00    +0.000 A 
ATOM      4  C   UNL     1     -11.742  -2.132  15.633  0.00  0.00    +0.000 A 
ATOM      5  C   UNL     1     -11.368  -2.894  14.507  0.00  0.00    +0.000 A 
ATOM      6  C   UNL     1     -11.241  -4.285  14.654  0.00  0.00    +0.000 A 
ATOM      7  N   UNL     1     -11.116  -2.230  13.254  0.00  0.00    +0.000 N 
ATOM      8  C   UNL     1     -11.378  -2.864  12.026  0.00  0.00    +0.000 C 
ATOM      9  O   UNL     1     -11.831  -4.000  11.910  0.00  0.00    +0.000 OA
ATOM     10  C   UNL     1     -10.730  -0.819  13.390  0.00  0.00    +0.000 C 
ATOM     11  C   UNL     1     -11.771  -0.060  14.191  0.00  0.00    +0.000 C 
ATOM     12  C   UNL     1     -11.844  -0.629  15.597  0.00  0.00    +0.000 C 
ATOM     13  H   UNL     1     -12.159  -4.603  17.924  0.00  0.00    +0.000 HD
ATOM     14  H   UNL     1     -12.333  -2.193  17.716  0.00  0.00    +0.000 HD
ATOM     15  H   UNL     1     -10.900  -4.889  13.817  0.00  0.00    +0.000 HD
ATOM     16  H   UNL     1     -10.601  -0.322  12.430  0.00  0.00    +0.000 HD
ATOM     17  H   UNL     1      -9.752  -0.793  13.891  0.00  0.00    +0.000 HD
ATOM     18  H   UNL     1     -12.748  -0.149  13.699  0.00  0.00    +0.000 HD
ATOM     19  H   UNL     1     -11.522   1.005  14.235  0.00  0.00    +0.000 HD
ATOM     20  H   UNL     1     -12.784  -0.305  16.062  0.00  0.00    +0.000 HD
ATOM     21  H   UNL     1     -11.021  -0.222  16.198  0.00  0.00    +0.000 HD
ENDROOT
BRANCH   8  22
ATOM     22  C   UNL     1     -11.170  -2.080  10.759  0.00  0.00    +0.000 C 
ATOM     23  C   UNL     1     -12.364  -1.393  10.125  0.00  0.00    +0.000 C 
ATOM     24  C   UNL     1     -11.733  -2.568   9.440  0.00  0.00    +0.000 C 
ATOM     25  H   UNL     1     -10.196  -1.621  10.640  0.00  0.00    +0.000 HD
ATOM     26  H   UNL     1     -12.225  -0.412   9.689  0.00  0.00    +0.000 HD
ATOM     27  H   UNL     1     -13.349  -1.552  10.555  0.00  0.00    +0.000 HD
ATOM     28  H   UNL     1     -11.155  -2.379   8.542  0.00  0.00    +0.000 HD
ATOM     29  H   UNL     1     -12.278  -3.505   9.422  0.00  0.00    +0.000 HD
ENDBRANCH   8  22
BRANCH   1  32
ATOM     30  C   UNL     1     -10.273  -6.999  16.413  0.00  0.00    +0.000 C 
ATOM     31  O   UNL     1      -9.242  -6.569  16.914  0.00  0.00    +0.000 OA
ATOM     32  N   UNL     1     -11.370  -6.312  15.938  0.00  0.00    +0.000 N 
ATOM     33  H   UNL     1     -12.154  -6.898  15.656  0.00  0.00    +0.000 HD
BRANCH  30  35
ATOM     34  N   UNL     1      -9.239  -9.186  16.309  0.00  0.00    +0.000 N 
ATOM     35  C   UNL     1     -10.449  -8.522  16.309  0.00  0.00    +0.000 C 
ATOM     36  O   UNL     1     -11.589  -8.963  16.256  0.00  0.00    +0.000 OA
ATOM     37  H   UNL     1      -8.438  -8.564  16.367  0.00  0.00    +0.000 HD
BRANCH  34  41
ATOM     38  C   UNL     1      -8.554 -13.360  16.051  0.00  0.00    +0.000 A 
ATOM     39  C   UNL     1      -8.854 -12.619  14.912  0.00  0.00    +0.000 A 
ATOM     40  C   UNL     1      -9.081 -11.247  15.004  0.00  0.00    +0.000 A 
ATOM     41  C   UNL     1      -9.014 -10.575  16.235  0.00  0.00    +0.000 A 
ATOM     42  C   UNL     1      -8.719 -11.315  17.398  0.00  0.00    +0.000 A 
ATOM     43  C   UNL     1      -8.491 -12.704  17.283  0.00  0.00    +0.000 A 
ATOM     44  H   UNL     1      -8.915 -13.096  13.936  0.00  0.00    +0.000 HD
ATOM     45  H   UNL     1      -9.306 -10.729  14.077  0.00  0.00    +0.000 HD
ATOM     46  H   UNL     1      -8.257 -13.283  18.178  0.00  0.00    +0.000 HD
BRANCH  38  47
ATOM     47  C   UNL     1      -8.305 -14.836  15.955  0.00  0.00    +0.000 C 
ATOM     48  H   UNL     1      -8.631 -15.356  16.863  0.00  0.00    +0.000 HD
ATOM     49  H   UNL     1      -7.236 -15.031  15.825  0.00  0.00    +0.000 HD
ATOM     50  H   UNL     1      -8.859 -15.259  15.112  0.00  0.00    +0.000 HD
ENDBRANCH  38  47
BRANCH  42  51
ATOM     51  C   UNL     1      -8.620 -10.741  18.787  0.00  0.00    +0.000 C 
ATOM     52  H   UNL     1      -9.563 -10.368  19.187  0.00  0.00    +0.000 HD
ATOM     53  H   UNL     1      -7.908  -9.910  18.796  0.00  0.00    +0.000 HD
ATOM     54  H   UNL     1      -8.265 -11.513  19.480  0.00  0.00    +0.000 HD
ENDBRANCH  42  51
ENDBRANCH  34  41
ENDBRANCH  30  35
ENDBRANCH   1  32
TORSDOF 6
ENDMDL
MODEL 4
REMARK VINA RESULT:   -10.248      2.292      9.501
REMARK INTER + INTRA:         -13.746
REMARK INTER:                 -13.851
REMARK INTRA:                   0.104
REMARK UNBOUND:                -0.502
REMARK  Name = 
REMARK  6 active torsions:
REMARK  status: ('A' for Active; 'I' for Inactive)
REMARK    1  A    between atoms: C_1  and  C_2
REMARK    2  A    between atoms: C_5  and  N_6
REMARK    3  A    between atoms: C_7  and  C_9
REMARK    4  A    between atoms: N_11  and  C_12
REMARK    5  A    between atoms: C_19  and  C_21
REMARK    6  A    between atoms: C_27  and  C_28
REMARK                            x       y       z     vdW  Elec       q    Type
REMARK                         _______ _______ _______ _____ _____    ______ ____
ROOT
ATOM      1  C   UNL     1      -9.236  -6.477  18.877  0.00  0.00    +0.000 A 
ATOM      2  C   UNL     1     -10.202  -5.985  18.000  0.00  0.00    +0.000 A 
ATOM      3  C   UNL     1     -10.655  -6.778  16.952  0.00  0.00    +0.000 A 
ATOM      4  C   UNL     1     -10.175  -8.085  16.779  0.00  0.00    +0.000 A 
ATOM      5  C   UNL     1      -9.228  -8.611  17.683  0.00  0.00    +0.000 A 
ATOM      6  C   UNL     1      -8.751  -7.781  18.710  0.00  0.00    +0.000 A 
ATOM      7  N   UNL     1      -8.773  -9.968  17.521  0.00  0.00    +0.000 N 
ATOM      8  C   UNL     1      -8.397 -10.749  18.629  0.00  0.00    +0.000 C 
ATOM      9  O   UNL     1      -8.424 -10.364  19.795  0.00  0.00    +0.000 OA
ATOM     10  C   UNL     1      -8.896 -10.482  16.151  0.00  0.00    +0.000 C 
ATOM     11  C   UNL     1     -10.324 -10.341  15.658  0.00  0.00    +0.000 C 
ATOM     12  C   UNL     1     -10.701  -8.871  15.606  0.00  0.00    +0.000 C 
ATOM     13  H   UNL     1     -10.594  -4.979  18.085  0.00  0.00    +0.000 HD
ATOM     14  H   UNL     1     -11.396  -6.370  16.268  0.00  0.00    +0.000 HD
ATOM     15  H   UNL     1      -7.981  -8.143  19.386  0.00  0.00    +0.000 HD
ATOM     16  H   UNL     1      -8.601 -11.526  16.063  0.00  0.00    +0.000 HD
ATOM     17  H   UNL     1      -8.203  -9.906  15.520  0.00  0.00    +0.000 HD
ATOM     18  H   UNL     1     -10.999 -10.879  16.335  0.00  0.00    +0.000 HD
ATOM     19  H   UNL     1     -10.434 -10.786  14.663  0.00  0.00    +0.000 HD
ATOM     20  H   UNL     1     -11.794  -8.787  15.558  0.00  0.00    +0.000 HD
ATOM     21  H   UNL     1     -10.294  -8.422  14.691  0.00  0.00    +0.000 HD
ENDROOT
BRANCH   8  22
ATOM     22  C   UNL     1      -8.012 -12.184  18.392  0.00  0.00    +0.000 C 
ATOM     23  C   UNL     1      -8.961 -13.072  17.611  0.00  0.00    +0.000 C 
ATOM     24  C   UNL     1      -8.756 -13.313  19.077  0.00  0.00    +0.000 C 
ATOM     25  H   UNL     1      -6.950 -12.384  18.319  0.00  0.00    +0.000 HD
ATOM     26  H   UNL     1      -8.544 -13.786  16.912  0.00  0.00    +0.000 HD
ATOM     27  H   UNL     1      -9.927 -12.673  17.313  0.00  0.00    +0.000 HD
ATOM     28  H   UNL     1      -8.189 -14.188  19.371  0.00  0.00    +0.000 HD
ATOM     29  H   UNL     1      -9.565 -13.066  19.755  0.00  0.00    +0.000 HD
ENDBRANCH   8  22
BRANCH   1  32
ATOM     30  C   UNL     1      -7.434  -5.169  19.995  0.00  0.00    +0.000 C 
ATOM     31  O   UNL     1      -6.531  -5.195  19.170  0.00  0.00    +0.000 OA
ATOM     32  N   UNL     1      -8.702  -5.706  19.923  0.00  0.00    +0.000 N 
ATOM     33  H   UNL     1      -9.314  -5.467  20.702  0.00  0.00    +0.000 HD
BRANCH  30  35
ATOM     34  N   UNL     1      -8.367  -4.226  22.020  0.00  0.00    +0.000 N 
ATOM     35  C   UNL     1      -7.199  -4.404  21.306  0.00  0.00    +0.000 C 
ATOM     36  O   UNL     1      -6.054  -4.064  21.572  0.00  0.00    +0.000 OA
ATOM     37  H   UNL     1      -9.183  -4.618  21.561  0.00  0.00    +0.000 HD
BRANCH  34  41
ATOM     38  C   UNL     1      -8.833  -2.303  25.768  0.00  0.00    +0.000 A 
ATOM     39  C   UNL     1      -8.118  -3.493  25.665  0.00  0.00    +0.000 A 
ATOM     40  C   UNL     1      -7.972  -4.122  24.429  0.00  0.00    +0.000 A 
ATOM     41  C   UNL     1      -8.532  -3.581  23.261  0.00  0.00    +0.000 A 
ATOM     42  C   UNL     1      -9.265  -2.381  23.353  0.00  0.00    +0.000 A 
ATOM     43  C   UNL     1      -9.402  -1.758  24.613  0.00  0.00    +0.000 A 
ATOM     44  H   UNL     1      -7.665  -3.949  26.543  0.00  0.00    +0.000 HD
ATOM     45  H   UNL     1      -7.399  -5.045  24.420  0.00  0.00    +0.000 HD
ATOM     46  H   UNL     1      -9.963  -0.826  24.691  0.00  0.00    +0.000 HD
BRANCH  38  47
ATOM     47  C   UNL     1      -8.990  -1.622  27.095  0.00  0.00    +0.000 C 
ATOM     48  H   UNL     1      -8.655  -2.265  27.916  0.00  0.00    +0.000 HD
ATOM     49  H   UNL     1     -10.043  -1.378  27.271  0.00  0.00    +0.000 HD
ATOM     50  H   UNL     1      -8.393  -0.706  27.122  0.00  0.00    +0.000 HD
ENDBRANCH  38  47
BRANCH  42  51
ATOM     51  C   UNL     1      -9.931  -1.683  22.196  0.00  0.00    +0.000 C 
ATOM     52  H   UNL     1      -9.601  -2.025  21.215  0.00  0.00    +0.000 HD
ATOM     53  H   UNL     1      -9.738  -0.606  22.251  0.00  0.00    +0.000 HD
ATOM     54  H   UNL     1     -11.014  -1.846  22.241  0.00  0.00    +0.000 HD
ENDBRANCH  42  51
ENDBRANCH  34  41
ENDBRANCH  30  35
ENDBRANCH   1  32
TORSDOF 6
ENDMDL
MODEL 5
REMARK VINA RESULT:   -10.209      3.513      6.152
REMARK INTER + INTRA:         -13.695
REMARK INTER:                 -13.454
REMARK INTRA:                  -0.241
REMARK UNBOUND:                -0.502
REMARK  Name = 
REMARK  6 active torsions:
REMARK  status: ('A' for Active; 'I' for Inactive)
REMARK    1  A    between atoms: C_1  and  C_2
REMARK    2  A    between atoms: C_5  and  N_6
REMARK    3  A    between atoms: C_7  and  C_9
REMARK    4  A    between atoms: N_11  and  C_12
REMARK    5  A    between atoms: C_19  and  C_21
REMARK    6  A    between atoms: C_27  and  C_28
REMARK                            x       y       z     vdW  Elec       q    Type
REMARK                         _______ _______ _______ _____ _____    ______ ____
ROOT
ATOM      1  C   UNL     1     -10.896  -4.860  17.700  0.00  0.00    +0.000 A 
ATOM      2  C   UNL     1     -11.192  -4.021  18.773  0.00  0.00    +0.000 A 
ATOM      3  C   UNL     1     -11.461  -2.676  18.549  0.00  0.00    +0.000 A 
ATOM      4  C   UNL     1     -11.470  -2.151  17.249  0.00  0.00    +0.000 A 
ATOM      5  C   UNL     1     -11.213  -2.996  16.149  0.00  0.00    +0.000 A 
ATOM      6  C   UNL     1     -10.902  -4.342  16.398  0.00  0.00    +0.000 A 
ATOM      7  N   UNL     1     -11.266  -2.456  14.814  0.00  0.00    +0.000 N 
ATOM      8  C   UNL     1     -11.664  -3.248  13.721  0.00  0.00    +0.000 C 
ATOM      9  O   UNL     1     -11.996  -4.427  13.800  0.00  0.00    +0.000 OA
ATOM     10  C   UNL     1     -11.029  -1.008  14.743  0.00  0.00    +0.000 C 
ATOM     11  C   UNL     1     -11.993  -0.268  15.651  0.00  0.00    +0.000 C 
ATOM     12  C   UNL     1     -11.750  -0.679  17.093  0.00  0.00    +0.000 C 
ATOM     13  H   UNL     1     -11.185  -4.377  19.797  0.00  0.00    +0.000 HD
ATOM     14  H   UNL     1     -11.672  -2.035  19.402  0.00  0.00    +0.000 HD
ATOM     15  H   UNL     1     -10.646  -5.001  15.572  0.00  0.00    +0.000 HD
ATOM     16  H   UNL     1     -11.130  -0.613  13.734  0.00  0.00    +0.000 HD
ATOM     17  H   UNL     1      -9.987  -0.831  15.047  0.00  0.00    +0.000 HD
ATOM     18  H   UNL     1     -13.024  -0.507  15.361  0.00  0.00    +0.000 HD
ATOM     19  H   UNL     1     -11.866   0.814  15.549  0.00  0.00    +0.000 HD
ATOM     20  H   UNL     1     -12.625  -0.399  17.693  0.00  0.00    +0.000 HD
ATOM     21  H   UNL     1     -10.887  -0.129  17.488  0.00  0.00    +0.000 HD
ENDROOT
BRANCH   8  22
ATOM     22  C   UNL     1     -11.776  -2.595  12.371  0.00  0.00    +0.000 C 
ATOM     23  C   UNL     1     -13.125  -2.060  11.931  0.00  0.00    +0.000 C 
ATOM     24  C   UNL     1     -12.542  -3.259  11.245  0.00  0.00    +0.000 C 
ATOM     25  H   UNL     1     -10.887  -2.090  12.013  0.00  0.00    +0.000 HD
ATOM     26  H   UNL     1     -13.159  -1.126  11.386  0.00  0.00    +0.000 HD
ATOM     27  H   UNL     1     -13.990  -2.234  12.565  0.00  0.00    +0.000 HD
ATOM     28  H   UNL     1     -12.170  -3.133  10.235  0.00  0.00    +0.000 HD
ATOM     29  H   UNL     1     -12.998  -4.226  11.427  0.00  0.00    +0.000 HD
ENDBRANCH   8  22
BRANCH   1  32
ATOM     30  C   UNL     1      -9.357  -6.728  18.288  0.00  0.00    +0.000 C 
ATOM     31  O   UNL     1      -8.346  -6.141  18.650  0.00  0.00    +0.000 OA
ATOM     32  N   UNL     1     -10.565  -6.215  17.867  0.00  0.00    +0.000 N 
ATOM     33  H   UNL     1     -11.295  -6.908  17.710  0.00  0.00    +0.000 HD
BRANCH  30  35
ATOM     34  N   UNL     1      -9.023  -8.815  17.106  0.00  0.00    +0.000 N 
ATOM     35  C   UNL     1      -9.359  -8.264  18.327  0.00  0.00    +0.000 C 
ATOM     36  O   UNL     1      -9.629  -8.809  19.389  0.00  0.00    +0.000 OA
ATOM     37  H   UNL     1      -8.841  -8.121  16.387  0.00  0.00    +0.000 HD
BRANCH  34  41
ATOM     38  C   UNL     1      -8.712 -12.929  16.138  0.00  0.00    +0.000 A 
ATOM     39  C   UNL     1      -8.586 -12.499  17.456  0.00  0.00    +0.000 A 
ATOM     40  C   UNL     1      -8.686 -11.143  17.766  0.00  0.00    +0.000 A 
ATOM     41  C   UNL     1      -8.917 -10.179  16.773  0.00  0.00    +0.000 A 
ATOM     42  C   UNL     1      -9.039 -10.601  15.433  0.00  0.00    +0.000 A 
ATOM     43  C   UNL     1      -8.936 -11.978  15.138  0.00  0.00    +0.000 A 
ATOM     44  H   UNL     1      -8.408 -13.210  18.260  0.00  0.00    +0.000 HD
ATOM     45  H   UNL     1      -8.581 -10.877  18.814  0.00  0.00    +0.000 HD
ATOM     46  H   UNL     1      -9.035 -12.313  14.105  0.00  0.00    +0.000 HD
BRANCH  38  47
ATOM     47  C   UNL     1      -8.609 -14.387  15.800  0.00  0.00    +0.000 C 
ATOM     48  H   UNL     1      -9.467 -14.721  15.206  0.00  0.00    +0.000 HD
ATOM     49  H   UNL     1      -8.584 -14.986  16.716  0.00  0.00    +0.000 HD
ATOM     50  H   UNL     1      -7.704 -14.575  15.216  0.00  0.00    +0.000 HD
ENDBRANCH  38  47
BRANCH  42  51
ATOM     51  C   UNL     1      -9.279  -9.690  14.258  0.00  0.00    +0.000 C 
ATOM     52  H   UNL     1      -8.555  -8.881  14.161  0.00  0.00    +0.000 HD
ATOM     53  H   UNL     1     -10.272  -9.234  14.338  0.00  0.00    +0.000 HD
ATOM     54  H   UNL     1      -9.235 -10.269  13.328  0.00  0.00    +0.000 HD
ENDBRANCH  42  51
ENDBRANCH  34  41
ENDBRANCH  30  35
ENDBRANCH   1  32
TORSDOF 6
ENDMDL
MODEL 6
REMARK VINA RESULT:   -10.103      4.302      6.860
REMARK INTER + INTRA:         -13.559
REMARK INTER:                 -13.126
REMARK INTRA:                  -0.433
REMARK UNBOUND:                -0.502
REMARK  Name = 
REMARK  6 active torsions:
REMARK  status: ('A' for Active; 'I' for Inactive)
REMARK    1  A    between atoms: C_1  and  C_2
REMARK    2  A    between atoms: C_5  and  N_6
REMARK    3  A    between atoms: C_7  and  C_9
REMARK    4  A    between atoms: N_11  and  C_12
REMARK    5  A    between atoms: C_19  and  C_21
REMARK    6  A    between atoms: C_27  and  C_28
REMARK                            x       y       z     vdW  Elec       q    Type
REMARK                         _______ _______ _______ _____ _____    ______ ____
ROOT
ATOM      1  C   UNL     1     -11.515  -4.823  16.214  0.00  0.00    +0.000 A 
ATOM      2  C   UNL     1     -11.810  -4.120  17.381  0.00  0.00    +0.000 A 
ATOM      3  C   UNL     1     -11.899  -2.734  17.353  0.00  0.00    +0.000 A 
ATOM      4  C   UNL     1     -11.724  -2.026  16.155  0.00  0.00    +0.000 A 
ATOM      5  C   UNL     1     -11.466  -2.725  14.957  0.00  0.00    +0.000 A 
ATOM      6  C   UNL     1     -11.338  -4.122  15.013  0.00  0.00    +0.000 A 
ATOM      7  N   UNL     1     -11.330  -1.992  13.724  0.00  0.00    +0.000 N 
ATOM      8  C   UNL     1     -11.713  -2.555  12.494  0.00  0.00    +0.000 C 
ATOM      9  O   UNL     1     -12.186  -3.681  12.359  0.00  0.00    +0.000 OA
ATOM     10  C   UNL     1     -10.920  -0.593  13.901  0.00  0.00    +0.000 C 
ATOM     11  C   UNL     1     -11.872   0.124  14.840  0.00  0.00    +0.000 C 
ATOM     12  C   UNL     1     -11.816  -0.523  16.213  0.00  0.00    +0.000 C 
ATOM     13  H   UNL     1     -11.941  -4.621  18.333  0.00  0.00    +0.000 HD
ATOM     14  H   UNL     1     -12.113  -2.203  18.278  0.00  0.00    +0.000 HD
ATOM     15  H   UNL     1     -11.084  -4.679  14.115  0.00  0.00    +0.000 HD
ATOM     16  H   UNL     1     -10.879  -0.043  12.963  0.00  0.00    +0.000 HD
ATOM     17  H   UNL     1      -9.898  -0.598  14.306  0.00  0.00    +0.000 HD
ATOM     18  H   UNL     1     -12.892   0.066  14.440  0.00  0.00    +0.000 HD
ATOM     19  H   UNL     1     -11.611   1.184  14.920  0.00  0.00    +0.000 HD
ATOM     20  H   UNL     1     -12.704  -0.223  16.783  0.00  0.00    +0.000 HD
ATOM     21  H   UNL     1     -10.935  -0.154  16.753  0.00  0.00    +0.000 HD
ENDROOT
BRANCH   8  22
ATOM     22  C   UNL     1     -11.621  -1.701  11.259  0.00  0.00    +0.000 C 
ATOM     23  C   UNL     1     -12.891  -1.089  10.701  0.00  0.00    +0.000 C 
ATOM     24  C   UNL     1     -12.194  -2.176   9.939  0.00  0.00    +0.000 C 
ATOM     25  H   UNL     1     -10.693  -1.158  11.126  0.00  0.00    +0.000 HD
ATOM     26  H   UNL     1     -12.851  -0.082  10.307  0.00  0.00    +0.000 HD
ATOM     27  H   UNL     1     -13.842  -1.348  11.159  0.00  0.00    +0.000 HD
ATOM     28  H   UNL     1     -11.670  -1.900   9.031  0.00  0.00    +0.000 HD
ATOM     29  H   UNL     1     -12.661  -3.153   9.897  0.00  0.00    +0.000 HD
ENDBRANCH   8  22
BRANCH   1  32
ATOM     30  C   UNL     1     -10.390  -6.958  16.829  0.00  0.00    +0.000 C 
ATOM     31  O   UNL     1      -9.500  -6.587  17.583  0.00  0.00    +0.000 OA
ATOM     32  N   UNL     1     -11.362  -6.218  16.189  0.00  0.00    +0.000 N 
ATOM     33  H   UNL     1     -12.058  -6.767  15.688  0.00  0.00    +0.000 HD
BRANCH  30  35
ATOM     34  N   UNL     1      -9.336  -9.136  16.745  0.00  0.00    +0.000 N 
ATOM     35  C   UNL     1     -10.526  -8.463  16.551  0.00  0.00    +0.000 C 
ATOM     36  O   UNL     1     -11.624  -8.886  16.217  0.00  0.00    +0.000 OA
ATOM     37  H   UNL     1      -8.572  -8.530  17.028  0.00  0.00    +0.000 HD
BRANCH  34  41
ATOM     38  C   UNL     1      -8.603 -13.289  16.321  0.00  0.00    +0.000 A 
ATOM     39  C   UNL     1      -8.756 -12.721  17.582  0.00  0.00    +0.000 A 
ATOM     40  C   UNL     1      -8.994 -11.353  17.715  0.00  0.00    +0.000 A 
ATOM     41  C   UNL     1      -9.087 -10.514  16.593  0.00  0.00    +0.000 A 
ATOM     42  C   UNL     1      -8.925 -11.075  15.310  0.00  0.00    +0.000 A 
ATOM     43  C   UNL     1      -8.686 -12.463  15.197  0.00  0.00    +0.000 A 
ATOM     44  H   UNL     1      -8.694 -13.332  18.480  0.00  0.00    +0.000 HD
ATOM     45  H   UNL     1      -9.108 -10.977  18.727  0.00  0.00    +0.000 HD
ATOM     46  H   UNL     1      -8.565 -12.905  14.207  0.00  0.00    +0.000 HD
BRANCH  38  47
ATOM     47  C   UNL     1      -8.350 -14.760  16.174  0.00  0.00    +0.000 C 
ATOM     48  H   UNL     1      -8.936 -15.185  15.352  0.00  0.00    +0.000 HD
ATOM     49  H   UNL     1      -8.633 -15.285  17.092  0.00  0.00    +0.000 HD
ATOM     50  H   UNL     1      -7.293 -14.942  15.960  0.00  0.00    +0.000 HD
ENDBRANCH  38  47
BRANCH  42  51
ATOM     51  C   UNL     1      -8.989 -10.308  14.016  0.00  0.00    +0.000 C 
ATOM     52  H   UNL     1      -8.995  -9.224  14.136  0.00  0.00    +0.000 HD
ATOM     53  H   UNL     1      -9.895 -10.583  13.465  0.00  0.00    +0.000 HD
ATOM     54  H   UNL     1      -8.117 -10.553  13.399  0.00  0.00    +0.000 HD
ENDBRANCH  42  51
ENDBRANCH  34  41
ENDBRANCH  30  35
ENDBRANCH   1  32
TORSDOF 6
ENDMDL
MODEL 7
REMARK VINA RESULT:   -10.068      2.932      4.615
REMARK INTER + INTRA:         -13.513
REMARK INTER:                 -12.927
REMARK INTRA:                  -0.586
REMARK UNBOUND:                -0.502
REMARK  Name = 
REMARK  6 active torsions:
REMARK  status: ('A' for Active; 'I' for Inactive)
REMARK    1  A    between atoms: C_1  and  C_2
REMARK    2  A    between atoms: C_5  and  N_6
REMARK    3  A    between atoms: C_7  and  C_9
REMARK    4  A    between atoms: N_11  and  C_12
REMARK    5  A    between atoms: C_19  and  C_21
REMARK    6  A    between atoms: C_27  and  C_28
REMARK                            x       y       z     vdW  Elec       q    Type
REMARK                         _______ _______ _______ _____ _____    ______ ____
ROOT
ATOM      1  C   UNL     1     -11.489  -4.641  15.408  0.00  0.00    +0.000 A 
ATOM      2  C   UNL     1     -11.575  -4.348  14.048  0.00  0.00    +0.000 A 
ATOM      3  C   UNL     1     -11.807  -3.043  13.632  0.00  0.00    +0.000 A 
ATOM      4  C   UNL     1     -11.928  -2.002  14.565  0.00  0.00    +0.000 A 
ATOM      5  C   UNL     1     -11.802  -2.275  15.942  0.00  0.00    +0.000 A 
ATOM      6  C   UNL     1     -11.610  -3.607  16.345  0.00  0.00    +0.000 A 
ATOM      7  N   UNL     1     -11.885  -1.193  16.890  0.00  0.00    +0.000 N 
ATOM      8  C   UNL     1     -11.171  -1.226  18.101  0.00  0.00    +0.000 C 
ATOM      9  O   UNL     1     -10.433  -2.144  18.451  0.00  0.00    +0.000 OA
ATOM     10  C   UNL     1     -12.634  -0.027  16.402  0.00  0.00    +0.000 C 
ATOM     11  C   UNL     1     -12.054   0.464  15.089  0.00  0.00    +0.000 C 
ATOM     12  C   UNL     1     -12.200  -0.618  14.034  0.00  0.00    +0.000 C 
ATOM     13  H   UNL     1     -11.501  -5.120  13.290  0.00  0.00    +0.000 HD
ATOM     14  H   UNL     1     -11.889  -2.838  12.567  0.00  0.00    +0.000 HD
ATOM     15  H   UNL     1     -11.564  -3.852  17.403  0.00  0.00    +0.000 HD
ATOM     16  H   UNL     1     -12.635   0.800  17.111  0.00  0.00    +0.000 HD
ATOM     17  H   UNL     1     -13.681  -0.337  16.280  0.00  0.00    +0.000 HD
ATOM     18  H   UNL     1     -10.995   0.713  15.227  0.00  0.00    +0.000 HD
ATOM     19  H   UNL     1     -12.565   1.374  14.758  0.00  0.00    +0.000 HD
ATOM     20  H   UNL     1     -11.521  -0.396  13.202  0.00  0.00    +0.000 HD
ATOM     21  H   UNL     1     -13.223  -0.606  13.638  0.00  0.00    +0.000 HD
ENDROOT
BRANCH   8  22
ATOM     22  C   UNL     1     -11.240  -0.024  19.003  0.00  0.00    +0.000 C 
ATOM     23  C   UNL     1     -10.127   1.003  18.932  0.00  0.00    +0.000 C 
ATOM     24  C   UNL     1     -10.268   0.144  20.153  0.00  0.00    +0.000 C 
ATOM     25  H   UNL     1     -12.235   0.319  19.260  0.00  0.00    +0.000 HD
ATOM     26  H   UNL     1     -10.385   2.052  19.013  0.00  0.00    +0.000 HD
ATOM     27  H   UNL     1      -9.271   0.805  18.293  0.00  0.00    +0.000 HD
ATOM     28  H   UNL     1     -10.633   0.611  21.061  0.00  0.00    +0.000 HD
ATOM     29  H   UNL     1      -9.527  -0.629  20.324  0.00  0.00    +0.000 HD
ENDBRANCH   8  22
BRANCH   1  32
ATOM     30  C   UNL     1     -10.111  -6.619  16.037  0.00  0.00    +0.000 C 
ATOM     31  O   UNL     1      -8.969  -6.227  15.837  0.00  0.00    +0.000 OA
ATOM     32  N   UNL     1     -11.307  -5.947  15.891  0.00  0.00    +0.000 N 
ATOM     33  H   UNL     1     -12.127  -6.456  16.216  0.00  0.00    +0.000 HD
BRANCH  30  35
ATOM     34  N   UNL     1      -9.114  -8.735  16.659  0.00  0.00    +0.000 N 
ATOM     35  C   UNL     1     -10.306  -8.045  16.574  0.00  0.00    +0.000 C 
ATOM     36  O   UNL     1     -11.441  -8.395  16.870  0.00  0.00    +0.000 OA
ATOM     37  H   UNL     1      -8.312  -8.195  16.347  0.00  0.00    +0.000 HD
BRANCH  34  41
ATOM     38  C   UNL     1      -8.505 -12.691  18.052  0.00  0.00    +0.000 A 
ATOM     39  C   UNL     1      -8.499 -11.619  18.938  0.00  0.00    +0.000 A 
ATOM     40  C   UNL     1      -8.697 -10.319  18.473  0.00  0.00    +0.000 A 
ATOM     41  C   UNL     1      -8.907 -10.053  17.111  0.00  0.00    +0.000 A 
ATOM     42  C   UNL     1      -8.908 -11.130  16.201  0.00  0.00    +0.000 A 
ATOM     43  C   UNL     1      -8.707 -12.440  16.692  0.00  0.00    +0.000 A 
ATOM     44  H   UNL     1      -8.341 -11.776  20.003  0.00  0.00    +0.000 HD
ATOM     45  H   UNL     1      -8.684  -9.530  19.218  0.00  0.00    +0.000 HD
ATOM     46  H   UNL     1      -8.712 -13.279  15.995  0.00  0.00    +0.000 HD
BRANCH  38  47
ATOM     47  C   UNL     1      -8.296 -14.091  18.549  0.00  0.00    +0.000 C 
ATOM     48  H   UNL     1      -8.097 -14.106  19.626  0.00  0.00    +0.000 HD
ATOM     49  H   UNL     1      -7.437 -14.546  18.045  0.00  0.00    +0.000 HD
ATOM     50  H   UNL     1      -9.189 -14.694  18.366  0.00  0.00    +0.000 HD
ENDBRANCH  38  47
BRANCH  42  51
ATOM     51  C   UNL     1      -9.112 -11.007  14.714  0.00  0.00    +0.000 C 
ATOM     52  H   UNL     1     -10.157 -10.963  14.405  0.00  0.00    +0.000 HD
ATOM     53  H   UNL     1      -8.654 -11.861  14.204  0.00  0.00    +0.000 HD
ATOM     54  H   UNL     1      -8.636 -10.088  14.352  0.00  0.00    +0.000 HD
ENDBRANCH  42  51
ENDBRANCH  34  41
ENDBRANCH  30  35
ENDBRANCH   1  32
TORSDOF 6
ENDMDL
MODEL 8
REMARK VINA RESULT:    -9.817      1.911      3.588
REMARK INTER + INTRA:         -13.189
REMARK INTER:                 -13.194
REMARK INTRA:                   0.004
REMARK UNBOUND:                -0.502
REMARK  Name = 
REMARK  6 active torsions:
REMARK  status: ('A' for Active; 'I' for Inactive)
REMARK    1  A    between atoms: C_1  and  C_2
REMARK    2  A    between atoms: C_5  and  N_6
REMARK    3  A    between atoms: C_7  and  C_9
REMARK    4  A    between atoms: N_11  and  C_12
REMARK    5  A    between atoms: C_19  and  C_21
REMARK    6  A    between atoms: C_27  and  C_28
REMARK                            x       y       z     vdW  Elec       q    Type
REMARK                         _______ _______ _______ _____ _____    ______ ____
ROOT
ATOM      1  C   UNL     1      -8.463  -4.732  19.522  0.00  0.00    +0.000 A 
ATOM      2  C   UNL     1      -7.913  -4.787  20.802  0.00  0.00    +0.000 A 
ATOM      3  C   UNL     1      -7.989  -3.680  21.639  0.00  0.00    +0.000 A 
ATOM      4  C   UNL     1      -8.640  -2.509  21.224  0.00  0.00    +0.000 A 
ATOM      5  C   UNL     1      -9.238  -2.452  19.948  0.00  0.00    +0.000 A 
ATOM      6  C   UNL     1      -9.114  -3.565  19.101  0.00  0.00    +0.000 A 
ATOM      7  N   UNL     1      -9.941  -1.260  19.548  0.00  0.00    +0.000 N 
ATOM      8  C   UNL     1     -11.043  -1.320  18.676  0.00  0.00    +0.000 C 
ATOM      9  O   UNL     1     -11.496  -2.355  18.195  0.00  0.00    +0.000 OA
ATOM     10  C   UNL     1      -9.507  -0.044  20.249  0.00  0.00    +0.000 C 
ATOM     11  C   UNL     1      -9.602  -0.235  21.750  0.00  0.00    +0.000 C 
ATOM     12  C   UNL     1      -8.661  -1.346  22.182  0.00  0.00    +0.000 C 
ATOM     13  H   UNL     1      -7.389  -5.665  21.163  0.00  0.00    +0.000 HD
ATOM     14  H   UNL     1      -7.538  -3.737  22.627  0.00  0.00    +0.000 HD
ATOM     15  H   UNL     1      -9.518  -3.527  18.093  0.00  0.00    +0.000 HD
ATOM     16  H   UNL     1     -10.089   0.833  19.973  0.00  0.00    +0.000 HD
ATOM     17  H   UNL     1      -8.470   0.159  19.942  0.00  0.00    +0.000 HD
ATOM     18  H   UNL     1     -10.634  -0.491  22.022  0.00  0.00    +0.000 HD
ATOM     19  H   UNL     1      -9.345   0.691  22.274  0.00  0.00    +0.000 HD
ATOM     20  H   UNL     1      -8.952  -1.689  23.182  0.00  0.00    +0.000 HD
ATOM     21  H   UNL     1      -7.639  -0.951  22.253  0.00  0.00    +0.000 HD
ENDROOT
BRANCH   8  22
ATOM     22  C   UNL     1     -11.780  -0.045  18.369  0.00  0.00    +0.000 C 
ATOM     23  C   UNL     1     -12.305   0.171  16.962  0.00  0.00    +0.000 C 
ATOM     24  C   UNL     1     -11.170   1.010  17.468  0.00  0.00    +0.000 C 
ATOM     25  H   UNL     1     -12.332   0.394  19.191  0.00  0.00    +0.000 HD
ATOM     26  H   UNL     1     -13.271   0.641  16.837  0.00  0.00    +0.000 HD
ATOM     27  H   UNL     1     -12.065  -0.561  16.196  0.00  0.00    +0.000 HD
ATOM     28  H   UNL     1     -11.372   2.050  17.697  0.00  0.00    +0.000 HD
ATOM     29  H   UNL     1     -10.181   0.834  17.059  0.00  0.00    +0.000 HD
ENDBRANCH   8  22
BRANCH   1  32
ATOM     30  C   UNL     1      -9.418  -6.516  18.070  0.00  0.00    +0.000 C 
ATOM     31  O   UNL     1     -10.624  -6.359  18.208  0.00  0.00    +0.000 OA
ATOM     32  N   UNL     1      -8.373  -5.799  18.614  0.00  0.00    +0.000 N 
ATOM     33  H   UNL     1      -7.450  -6.059  18.271  0.00  0.00    +0.000 HD
BRANCH  30  35
ATOM     34  N   UNL     1      -9.401  -8.872  17.512  0.00  0.00    +0.000 N 
ATOM     35  C   UNL     1      -8.933  -7.630  17.130  0.00  0.00    +0.000 C 
ATOM     36  O   UNL     1      -8.231  -7.312  16.180  0.00  0.00    +0.000 OA
ATOM     37  H   UNL     1      -9.974  -8.846  18.349  0.00  0.00    +0.000 HD
BRANCH  34  41
ATOM     38  C   UNL     1      -8.698 -12.589  15.602  0.00  0.00    +0.000 A 
ATOM     39  C   UNL     1      -9.207 -11.509  14.887  0.00  0.00    +0.000 A 
ATOM     40  C   UNL     1      -9.438 -10.290  15.523  0.00  0.00    +0.000 A 
ATOM     41  C   UNL     1      -9.168 -10.113  16.888  0.00  0.00    +0.000 A 
ATOM     42  C   UNL     1      -8.660 -11.201  17.627  0.00  0.00    +0.000 A 
ATOM     43  C   UNL     1      -8.431 -12.428  16.965  0.00  0.00    +0.000 A 
ATOM     44  H   UNL     1      -9.430 -11.599  13.826  0.00  0.00    +0.000 HD
ATOM     45  H   UNL     1      -9.832  -9.489  14.905  0.00  0.00    +0.000 HD
ATOM     46  H   UNL     1      -8.033 -13.273  17.528  0.00  0.00    +0.000 HD
BRANCH  38  47
ATOM     47  C   UNL     1      -8.444 -13.902  14.922  0.00  0.00    +0.000 C 
ATOM     48  H   UNL     1      -8.126 -14.667  15.638  0.00  0.00    +0.000 HD
ATOM     49  H   UNL     1      -7.650 -13.793  14.176  0.00  0.00    +0.000 HD
ATOM     50  H   UNL     1      -9.356 -14.257  14.436  0.00  0.00    +0.000 HD
ENDBRANCH  38  47
BRANCH  42  51
ATOM     51  C   UNL     1      -8.328 -11.171  19.096  0.00  0.00    +0.000 C 
ATOM     52  H   UNL     1      -9.197 -11.206  19.753  0.00  0.00    +0.000 HD
ATOM     53  H   UNL     1      -7.774 -10.257  19.332  0.00  0.00    +0.000 HD
ATOM     54  H   UNL     1      -7.703 -12.034  19.350  0.00  0.00    +0.000 HD
ENDBRANCH  42  51
ENDBRANCH  34  41
ENDBRANCH  30  35
ENDBRANCH   1  32
TORSDOF 6
ENDMDL
MODEL 9
REMARK VINA RESULT:    -9.797      2.239      4.242
REMARK INTER + INTRA:         -13.163
REMARK INTER:                 -12.829
REMARK INTRA:                  -0.335
REMARK UNBOUND:                -0.502
REMARK  Name = 
REMARK  6 active torsions:
REMARK  status: ('A' for Active; 'I' for Inactive)
REMARK    1  A    between atoms: C_1  and  C_2
REMARK    2  A    between atoms: C_5  and  N_6
REMARK    3  A    between atoms: C_7  and  C_9
REMARK    4  A    between atoms: N_11  and  C_12
REMARK    5  A    between atoms: C_19  and  C_21
REMARK    6  A    between atoms: C_27  and  C_28
REMARK                            x       y       z     vdW  Elec       q    Type
REMARK                         _______ _______ _______ _____ _____    ______ ____
ROOT
ATOM      1  C   UNL     1      -9.254  -3.754  18.748  0.00  0.00    +0.000 A 
ATOM      2  C   UNL     1      -8.901  -3.500  20.073  0.00  0.00    +0.000 A 
ATOM      3  C   UNL     1      -9.174  -2.260  20.638  0.00  0.00    +0.000 A 
ATOM      4  C   UNL     1      -9.831  -1.263  19.902  0.00  0.00    +0.000 A 
ATOM      5  C   UNL     1     -10.232  -1.520  18.575  0.00  0.00    +0.000 A 
ATOM      6  C   UNL     1      -9.910  -2.763  18.007  0.00  0.00    +0.000 A 
ATOM      7  N   UNL     1     -10.944  -0.504  17.841  0.00  0.00    +0.000 N 
ATOM      8  C   UNL     1     -11.896  -0.842  16.862  0.00  0.00    +0.000 C 
ATOM      9  O   UNL     1     -12.202  -1.991  16.555  0.00  0.00    +0.000 OA
ATOM     10  C   UNL     1     -10.701   0.863  18.321  0.00  0.00    +0.000 C 
ATOM     11  C   UNL     1     -11.009   0.968  19.802  0.00  0.00    +0.000 C 
ATOM     12  C   UNL     1     -10.072   0.060  20.581  0.00  0.00    +0.000 C 
ATOM     13  H   UNL     1      -8.381  -4.234  20.678  0.00  0.00    +0.000 HD
ATOM     14  H   UNL     1      -8.875  -2.076  21.667  0.00  0.00    +0.000 HD
ATOM     15  H   UNL     1     -10.159  -2.965  16.968  0.00  0.00    +0.000 HD
ATOM     16  H   UNL     1     -11.292   1.607  17.790  0.00  0.00    +0.000 HD
ATOM     17  H   UNL     1      -9.646   1.098  18.120  0.00  0.00    +0.000 HD
ATOM     18  H   UNL     1     -12.050   0.674  19.981  0.00  0.00    +0.000 HD
ATOM     19  H   UNL     1     -10.895   2.000  20.148  0.00  0.00    +0.000 HD
ATOM     20  H   UNL     1     -10.488  -0.102  21.583  0.00  0.00    +0.000 HD
ATOM     21  H   UNL     1      -9.101   0.557  20.703  0.00  0.00    +0.000 HD
ENDROOT
BRANCH   8  22
ATOM     22  C   UNL     1     -12.660   0.269  16.196  0.00  0.00    +0.000 C 
ATOM     23  C   UNL     1     -14.168   0.150  16.084  0.00  0.00    +0.000 C 
ATOM     24  C   UNL     1     -13.322   0.062  14.849  0.00  0.00    +0.000 C 
ATOM     25  H   UNL     1     -12.233   1.260  16.290  0.00  0.00    +0.000 HD
ATOM     26  H   UNL     1     -14.769   1.038  16.229  0.00  0.00    +0.000 HD
ATOM     27  H   UNL     1     -14.646  -0.768  16.413  0.00  0.00    +0.000 HD
ATOM     28  H   UNL     1     -13.343   0.899  14.161  0.00  0.00    +0.000 HD
ATOM     29  H   UNL     1     -13.221  -0.903  14.364  0.00  0.00    +0.000 HD
ENDBRANCH   8  22
BRANCH   1  32
ATOM     30  C   UNL     1      -9.680  -6.141  18.177  0.00  0.00    +0.000 C 
ATOM     31  O   UNL     1     -10.734  -6.373  18.754  0.00  0.00    +0.000 OA
ATOM     32  N   UNL     1      -8.959  -4.968  18.106  0.00  0.00    +0.000 N 
ATOM     33  H   UNL     1      -8.157  -4.994  17.479  0.00  0.00    +0.000 HD
BRANCH  30  35
ATOM     34  N   UNL     1      -9.675  -8.479  17.550  0.00  0.00    +0.000 N 
ATOM     35  C   UNL     1      -9.037  -7.270  17.358  0.00  0.00    +0.000 C 
ATOM     36  O   UNL     1      -8.083  -6.988  16.645  0.00  0.00    +0.000 OA
ATOM     37  H   UNL     1     -10.451  -8.426  18.202  0.00  0.00    +0.000 HD
BRANCH  34  41
ATOM     38  C   UNL     1      -8.752 -12.202  15.747  0.00  0.00    +0.000 A 
ATOM     39  C   UNL     1      -9.333 -11.179  15.004  0.00  0.00    +0.000 A 
ATOM     40  C   UNL     1      -9.637  -9.958  15.604  0.00  0.00    +0.000 A 
ATOM     41  C   UNL     1      -9.369  -9.722  16.962  0.00  0.00    +0.000 A 
ATOM     42  C   UNL     1      -8.788 -10.753  17.728  0.00  0.00    +0.000 A 
ATOM     43  C   UNL     1      -8.487 -11.983  17.102  0.00  0.00    +0.000 A 
ATOM     44  H   UNL     1      -9.558 -11.315  13.948  0.00  0.00    +0.000 HD
ATOM     45  H   UNL     1     -10.085  -9.202  14.966  0.00  0.00    +0.000 HD
ATOM     46  H   UNL     1      -8.032 -12.784  17.686  0.00  0.00    +0.000 HD
BRANCH  38  47
ATOM     47  C   UNL     1      -8.421 -13.516  15.104  0.00  0.00    +0.000 C 
ATOM     48  H   UNL     1      -9.207 -14.258  15.284  0.00  0.00    +0.000 HD
ATOM     49  H   UNL     1      -7.488 -13.913  15.516  0.00  0.00    +0.000 HD
ATOM     50  H   UNL     1      -8.320 -13.393  14.023  0.00  0.00    +0.000 HD
ENDBRANCH  38  47
BRANCH  42  51
ATOM     51  C   UNL     1      -8.449 -10.657  19.192  0.00  0.00    +0.000 C 
ATOM     52  H   UNL     1      -7.380 -10.655  19.407  0.00  0.00    +0.000 HD
ATOM     53  H   UNL     1      -8.891 -11.501  19.732  0.00  0.00    +0.000 HD
ATOM     54  H   UNL     1      -8.857  -9.727  19.605  0.00  0.00    +0.000 HD
ENDBRANCH  42  51
ENDBRANCH  34  41
ENDBRANCH  30  35
ENDBRANCH   1  32
TORSDOF 6
ENDMDL
