
 OpenBabel01112423153D

 48 52  0  0  1  0  0  0  0  0999 V2000
    0.9882   -0.0602   -0.0501 C   0  0  0  0  0  0  0  0  0  0  0  0
    2.5220   -0.0589   -0.1388 C   0  0  0  0  0  0  0  0  0  0  0  0
    2.9188   -0.1961   -1.6253 C   0  0  0  0  0  0  0  0  0  0  0  0
    3.0848   -1.2408    0.6667 C   0  0  0  0  0  0  0  0  0  0  0  0
    4.5975   -1.2269    0.6288 C   0  0  0  0  0  0  0  0  0  0  0  0
    5.2415   -2.2564    0.4492 O   0  0  0  0  0  0  0  0  0  0  0  0
    5.2650    0.0832    0.8352 C   0  0  0  0  0  0  0  0  0  0  0  0
    4.5458    1.2128    0.7639 C   0  0  0  0  0  0  0  0  0  0  0  0
    3.0701    1.2584    0.4565 C   0  0  0  0  0  0  0  0  0  0  0  0
    5.2029    2.3979    0.9797 N   0  0  0  0  0  0  0  0  0  0  0  0
    6.5610    2.4841    1.1082 C   0  0  0  0  0  0  0  0  0  0  0  0
    7.0882    3.7442    1.1297 N   0  0  0  0  0  0  0  0  0  0  0  0
    6.4535    4.9265    1.1160 C   0  0  0  0  0  0  0  0  0  0  0  0
    5.1562    5.1673    1.0704 N   0  0  0  0  0  0  0  0  0  0  0  0
    5.0790    6.5359    1.0887 C   0  0  0  0  0  0  0  0  0  0  0  0
    3.9739    7.3948    1.0645 C   0  0  0  0  0  0  0  0  0  0  0  0
    4.2127    8.7773    1.0877 C   0  0  0  0  0  0  0  0  0  0  0  0
    5.5163    9.2860    1.1351 C   0  0  0  0  0  0  0  0  0  0  0  0
    6.6320    8.4383    1.1640 C   0  0  0  0  0  0  0  0  0  0  0  0
    6.3528    7.0773    1.1385 C   0  0  0  0  0  0  0  0  0  0  0  0
    7.2443    6.0410    1.1570 O   0  0  0  0  0  0  0  0  0  0  0  0
    7.3551    1.4639    1.1912 N   0  0  0  0  0  0  0  0  0  0  0  0
    6.7323    0.1034    1.1954 C   0  0  1  0  0  0  0  0  0  0  0  0
    6.9588   -0.4954    2.5721 C   0  0  0  0  0  0  0  0  0  0  0  0
    6.5080   -0.0147    3.7894 C   0  0  0  0  0  0  0  0  0  0  0  0
    6.7508   -0.9221    4.8558 C   0  0  0  0  0  0  0  0  0  0  0  0
    7.4116   -2.0511    4.4282 C   0  0  0  0  0  0  0  0  0  0  0  0
    7.7678   -1.9955    2.7564 S   0  0  0  0  0  0  0  0  0  0  0  0
    0.5704   -0.9898   -0.4530 H   0  0  0  0  0  0  0  0  0  0  0  0
    0.5609    0.7733   -0.6188 H   0  0  0  0  0  0  0  0  0  0  0  0
    0.6487    0.0343    0.9874 H   0  0  0  0  0  0  0  0  0  0  0  0
    2.5565   -1.1434   -2.0389 H   0  0  0  0  0  0  0  0  0  0  0  0
    4.0033   -0.1681   -1.7752 H   0  0  0  0  0  0  0  0  0  0  0  0
    2.4893    0.6159   -2.2220 H   0  0  0  0  0  0  0  0  0  0  0  0
    2.7299   -2.1952    0.2604 H   0  0  0  0  0  0  0  0  0  0  0  0
    2.7763   -1.1935    1.7187 H   0  0  0  0  0  0  0  0  0  0  0  0
    2.8627    2.0849   -0.2358 H   0  0  0  0  0  0  0  0  0  0  0  0
    2.5456    1.4945    1.3921 H   0  0  0  0  0  0  0  0  0  0  0  0
    4.6707    3.2654    0.9201 H   0  0  0  0  0  0  0  0  0  0  0  0
    8.0971    3.7543    1.1849 H   0  0  0  0  0  0  0  0  0  0  0  0
    2.9654    6.9985    1.0270 H   0  0  0  0  0  0  0  0  0  0  0  0
    3.3673    9.4637    1.0686 H   0  0  0  0  0  0  0  0  0  0  0  0
    5.6665   10.3646    1.1488 H   0  0  0  0  0  0  0  0  0  0  0  0
    7.6459    8.8163    1.2015 H   0  0  0  0  0  0  0  0  0  0  0  0
    7.2752   -0.4712    0.4339 H   0  0  0  0  0  0  0  0  0  0  0  0
    5.9835    0.9283    3.8890 H   0  0  0  0  0  0  0  0  0  0  0  0
    6.4423   -0.7624    5.8806 H   0  0  0  0  0  0  0  0  0  0  0  0
    7.7072   -2.9095    5.0148 H   0  0  0  0  0  0  0  0  0  0  0  0
  1  2  1  0  0  0  0
  1 29  1  0  0  0  0
  1 30  1  0  0  0  0
  1 31  1  0  0  0  0
  2  3  1  0  0  0  0
  2  4  1  0  0  0  0
  2  9  1  0  0  0  0
  3 32  1  0  0  0  0
  3 33  1  0  0  0  0
  3 34  1  0  0  0  0
  4  5  1  0  0  0  0
  4 35  1  0  0  0  0
  4 36  1  0  0  0  0
  5  6  2  0  0  0  0
  5  7  1  0  0  0  0
  7  8  2  0  0  0  0
  7 23  1  0  0  0  0
  8  9  1  0  0  0  0
  8 10  1  0  0  0  0
  9 37  1  0  0  0  0
  9 38  1  0  0  0  0
 10 11  1  0  0  0  0
 10 39  1  0  0  0  0
 11 12  1  0  0  0  0
 11 22  2  0  0  0  0
 12 13  1  0  0  0  0
 12 40  1  0  0  0  0
 13 14  2  0  0  0  0
 13 21  1  0  0  0  0
 14 15  1  0  0  0  0
 15 16  1  0  0  0  0
 15 20  2  0  0  0  0
 16 17  2  0  0  0  0
 16 41  1  0  0  0  0
 17 18  1  0  0  0  0
 17 42  1  0  0  0  0
 18 19  2  0  0  0  0
 18 43  1  0  0  0  0
 19 20  1  0  0  0  0
 19 44  1  0  0  0  0
 20 21  1  0  0  0  0
 22 23  1  0  0  0  0
 23 24  1  0  0  0  0
 23 45  1  6  0  0  0
 24 25  2  0  0  0  0
 24 28  1  0  0  0  0
 25 26  1  0  0  0  0
 25 46  1  0  0  0  0
 26 27  2  0  0  0  0
 26 47  1  0  0  0  0
 27 28  1  0  0  0  0
 27 48  1  0  0  0  0
M  END
$$$$
