REMARK  Name = 
REMARK  8 active torsions:
REMARK  status: ('A' for Active; 'I' for Inactive)
REMARK    1  A    between atoms: C_1  and  O_2
REMARK    2  A    between atoms: O_2  and  C_3
REMARK    3  A    between atoms: C_6  and  C_7
REMARK    4  A    between atoms: C_8  and  C_9
REMARK    5  A    between atoms: C_11  and  N_12
REMARK    6  A    between atoms: C_19  and  C_20
REMARK    7  A    between atoms: C_28  and  O_29
REMARK    8  A    between atoms: O_29  and  C_30
REMARK                            x       y       z     vdW  Elec       q    Type
REMARK                         _______ _______ _______ _____ _____    ______ ____
ROOT
ATOM      1  C   UNL     1       0.784  -0.267  -0.479  0.00  0.00    +0.000 C 
ATOM      2  C   UNL     1       1.381  -1.561  -1.015  0.00  0.00    +0.000 C 
ATOM      3  C   UNL     1       1.144  -2.751  -0.423  0.00  0.00    +0.000 C 
ATOM      4  O   UNL     1       0.314  -2.857   0.686  0.00  0.00    +0.000 OA
ATOM      5  C   UNL     1      -0.210  -1.723   1.285  0.00  0.00    +0.000 C 
ATOM      6  C   UNL     1      -0.021  -0.493   0.776  0.00  0.00    +0.000 C 
ATOM      7  C   UNL     1      -0.529   0.686   1.540  0.00  0.00    +0.000 C 
ATOM      8  O   UNL     1      -0.339   1.831   1.136  0.00  0.00    +0.000 OA
ATOM      9  C   UNL     1      -1.320   0.434   2.805  0.00  0.00    +0.000 C 
ATOM     10  C   UNL     1      -0.762  -0.780   3.562  0.00  0.00    +0.000 C 
ATOM     11  C   UNL     1      -0.862  -1.993   2.616  0.00  0.00    +0.000 C 
ATOM     12  H   UNL     1       1.644   0.351  -0.177  0.00  0.00    +0.000 HD
ATOM     13  H   UNL     1      -2.366   0.267   2.521  0.00  0.00    +0.000 HD
ATOM     14  H   UNL     1      -1.294   1.341   3.419  0.00  0.00    +0.000 HD
ATOM     15  H   UNL     1      -1.420  -0.987   4.418  0.00  0.00    +0.000 HD
ATOM     16  H   UNL     1      -1.917  -2.237   2.435  0.00  0.00    +0.000 HD
ATOM     17  H   UNL     1      -0.421  -2.878   3.091  0.00  0.00    +0.000 HD
ENDROOT
BRANCH  10  18
ATOM     18  C   UNL     1       0.623  -0.502   4.157  0.00  0.00    +0.000 A 
ATOM     19  C   UNL     1       0.774   0.551   5.077  0.00  0.00    +0.000 A 
ATOM     20  C   UNL     1       2.021   0.857   5.630  0.00  0.00    +0.000 A 
ATOM     21  C   UNL     1       3.141   0.109   5.284  0.00  0.00    +0.000 A 
ATOM     22  C   UNL     1       3.013  -0.947   4.391  0.00  0.00    +0.000 A 
ATOM     23  C   UNL     1       1.767  -1.254   3.838  0.00  0.00    +0.000 A 
ATOM     24  H   UNL     1      -0.082   1.153   5.375  0.00  0.00    +0.000 HD
ATOM     25  H   UNL     1       2.115   1.682   6.331  0.00  0.00    +0.000 HD
ATOM     26  H   UNL     1       4.111   0.347   5.713  0.00  0.00    +0.000 HD
ATOM     27  H   UNL     1       3.885  -1.539   4.120  0.00  0.00    +0.000 HD
ATOM     28  H   UNL     1       1.730  -2.095   3.151  0.00  0.00    +0.000 HD
ENDBRANCH  10  18
BRANCH   1  32
ATOM     29  C   UNL     1      -1.370   1.940  -3.552  0.00  0.00    +0.000 A 
ATOM     30  C   UNL     1      -0.284   2.509  -2.877  0.00  0.00    +0.000 A 
ATOM     31  C   UNL     1       0.406   1.785  -1.901  0.00  0.00    +0.000 A 
ATOM     32  C   UNL     1       0.012   0.484  -1.560  0.00  0.00    +0.000 A 
ATOM     33  C   UNL     1      -1.078  -0.081  -2.229  0.00  0.00    +0.000 A 
ATOM     34  C   UNL     1      -1.749   0.624  -3.238  0.00  0.00    +0.000 A 
ATOM     35  H   UNL     1       0.034   3.528  -3.058  0.00  0.00    +0.000 HD
ATOM     36  H   UNL     1       1.227   2.270  -1.379  0.00  0.00    +0.000 HD
ATOM     37  H   UNL     1      -1.413  -1.088  -1.988  0.00  0.00    +0.000 HD
BRANCH  29  38
ATOM     38  O   UNL     1      -2.136   2.632  -4.453  0.00  0.00    +0.000 OA
BRANCH  38  39
ATOM     39  C   UNL     1      -1.540   3.764  -5.074  0.00  0.00    +0.000 C 
ATOM     40  H   UNL     1      -2.258   4.156  -5.802  0.00  0.00    +0.000 HD
ATOM     41  H   UNL     1      -0.633   3.478  -5.616  0.00  0.00    +0.000 HD
ATOM     42  H   UNL     1      -1.340   4.564  -4.356  0.00  0.00    +0.000 HD
ENDBRANCH  38  39
ENDBRANCH  29  38
BRANCH  34  43
ATOM     43  O   UNL     1      -2.783  -0.076  -3.811  0.00  0.00    +0.000 OA
BRANCH  43  44
ATOM     44  C   UNL     1      -2.912   0.094  -5.220  0.00  0.00    +0.000 C 
ATOM     45  H   UNL     1      -3.444  -0.779  -5.611  0.00  0.00    +0.000 HD
ATOM     46  H   UNL     1      -1.940   0.142  -5.725  0.00  0.00    +0.000 HD
ATOM     47  H   UNL     1      -3.523   0.971  -5.450  0.00  0.00    +0.000 HD
ENDBRANCH  43  44
ENDBRANCH  34  43
ENDBRANCH   1  32
BRANCH   3  48
ATOM     48  N   UNL     1       1.668  -3.961  -0.810  0.00  0.00    +0.000 N 
ATOM     49  H   UNL     1       1.927  -4.036  -1.792  0.00  0.00    +0.000 HD
ATOM     50  H   UNL     1       1.116  -4.748  -0.478  0.00  0.00    +0.000 HD
ENDBRANCH   3  48
BRANCH   2  51
ATOM     51  C   UNL     1       2.223  -1.479  -2.164  0.00  0.00    +0.000 C 
ATOM     52  N   UNL     1       2.887  -1.435  -3.115  0.00  0.00    +0.000 NA
ENDBRANCH   2  51
TORSDOF 8
