REMARK  Name = 
REMARK  7 active torsions:
REMARK  status: ('A' for Active; 'I' for Inactive)
REMARK    1  A    between atoms: C_1  and  C_2
REMARK    2  A    between atoms: C_5  and  C_6
REMARK    3  A    between atoms: C_9  and  S_10
REMARK    4  A    between atoms: S_10  and  C_11
REMARK    5  A    between atoms: C_11  and  C_12
REMARK    6  A    between atoms: C_11  and  C_13
REMARK    7  A    between atoms: N_25  and  N_26
REMARK                            x       y       z     vdW  Elec       q    Type
REMARK                         _______ _______ _______ _____ _____    ______ ____
ROOT
ATOM      1  C   UNL     1       0.253   1.913   1.012  0.00  0.00    +0.000 C 
ATOM      2  H   UNL     1       0.624   2.939   1.104  0.00  0.00    +0.000 HD
ENDROOT
BRANCH   1   3
ATOM      3  C   UNL     1      -0.871   1.887  -0.033  0.00  0.00    +0.000 C 
ATOM      4  O   UNL     1      -1.925   1.282   0.187  0.00  0.00    +0.000 OA
ATOM      5  N   UNL     1      -0.669   2.613  -1.203  0.00  0.00    +0.000 N 
ATOM      6  C   UNL     1      -1.699   2.568  -2.253  0.00  0.00    +0.000 C 
ATOM      7  C   UNL     1      -1.885   3.938  -2.911  0.00  0.00    +0.000 C 
ATOM      8  C   UNL     1      -0.566   4.298  -3.548  0.00  0.00    +0.000 A 
ATOM      9  C   UNL     1      -0.454   4.752  -4.861  0.00  0.00    +0.000 A 
ATOM     10  C   UNL     1       0.811   4.971  -5.407  0.00  0.00    +0.000 A 
ATOM     11  C   UNL     1       1.961   4.757  -4.645  0.00  0.00    +0.000 A 
ATOM     12  C   UNL     1       1.852   4.322  -3.326  0.00  0.00    +0.000 A 
ATOM     13  C   UNL     1       0.592   4.076  -2.781  0.00  0.00    +0.000 A 
ATOM     14  C   UNL     1       0.429   3.575  -1.372  0.00  0.00    +0.000 C 
ATOM     15  H   UNL     1      -2.651   2.204  -1.855  0.00  0.00    +0.000 HD
ATOM     16  H   UNL     1      -1.359   1.833  -2.997  0.00  0.00    +0.000 HD
ATOM     17  H   UNL     1      -2.141   4.692  -2.153  0.00  0.00    +0.000 HD
ATOM     18  H   UNL     1      -2.692   3.907  -3.648  0.00  0.00    +0.000 HD
ATOM     19  H   UNL     1      -1.341   4.902  -5.470  0.00  0.00    +0.000 HD
ATOM     20  H   UNL     1       0.904   5.283  -6.445  0.00  0.00    +0.000 HD
ATOM     21  H   UNL     1       2.943   4.916  -5.082  0.00  0.00    +0.000 HD
ATOM     22  H   UNL     1       2.752   4.150  -2.741  0.00  0.00    +0.000 HD
ATOM     23  H   UNL     1       0.202   4.426  -0.717  0.00  0.00    +0.000 HD
ATOM     24  H   UNL     1       1.370   3.142  -1.032  0.00  0.00    +0.000 HD
ENDBRANCH   1   3
BRANCH   1  25
ATOM     25  C   UNL     1      -0.249   1.524   2.398  0.00  0.00    +0.000 C 
ATOM     26  H   UNL     1      -0.779   0.567   2.406  0.00  0.00    +0.000 HD
ATOM     27  H   UNL     1      -0.962   2.281   2.752  0.00  0.00    +0.000 HD
ATOM     28  H   UNL     1       0.567   1.486   3.126  0.00  0.00    +0.000 HD
ENDBRANCH   1  25
BRANCH   1  29
ATOM     29  S   UNL     1       1.674   0.889   0.463  0.00  0.00    +0.000 S 
BRANCH  29  33
ATOM     30  C   UNL     1       0.390  -2.719   0.901  0.00  0.00    +0.000 A 
ATOM     31  N   UNL     1       0.110  -2.538  -0.383  0.00  0.00    +0.000 NA
ATOM     32  N   UNL     1       0.472  -1.251  -0.738  0.00  0.00    +0.000 NA
ATOM     33  C   UNL     1       0.979  -0.687   0.329  0.00  0.00    +0.000 A 
ATOM     34  N   UNL     1       1.027  -1.584   1.360  0.00  0.00    +0.000 N 
BRANCH  30  38
ATOM     35  C   UNL     1      -0.515  -6.201   3.227  0.00  0.00    +0.000 A 
ATOM     36  C   UNL     1      -0.205  -6.317   1.868  0.00  0.00    +0.000 A 
ATOM     37  C   UNL     1       0.098  -5.178   1.110  0.00  0.00    +0.000 A 
ATOM     38  C   UNL     1       0.098  -3.908   1.700  0.00  0.00    +0.000 A 
ATOM     39  C   UNL     1      -0.223  -3.804   3.060  0.00  0.00    +0.000 A 
ATOM     40  C   UNL     1      -0.514  -4.936   3.819  0.00  0.00    +0.000 A 
ATOM     41  H   UNL     1      -0.202  -7.290   1.383  0.00  0.00    +0.000 HD
ATOM     42  H   UNL     1       0.328  -5.290   0.051  0.00  0.00    +0.000 HD
ATOM     43  H   UNL     1      -0.276  -2.833   3.548  0.00  0.00    +0.000 HD
ATOM     44  H   UNL     1      -0.761  -4.819   4.873  0.00  0.00    +0.000 HD
BRANCH  35  45
ATOM     45  C   UNL     1      -0.876  -7.398   4.054  0.00  0.00    +0.000 C 
ATOM     46  H   UNL     1      -0.828  -8.321   3.469  0.00  0.00    +0.000 HD
ATOM     47  H   UNL     1      -1.897  -7.289   4.433  0.00  0.00    +0.000 HD
ATOM     48  H   UNL     1      -0.188  -7.495   4.900  0.00  0.00    +0.000 HD
ENDBRANCH  35  45
ENDBRANCH  30  38
BRANCH  34  49
ATOM     49  N   UNL     1       1.688  -1.385   2.636  0.00  0.00    +0.000 N 
ATOM     50  H   UNL     1       2.376  -0.636   2.550  0.00  0.00    +0.000 HD
ATOM     51  H   UNL     1       2.227  -2.216   2.881  0.00  0.00    +0.000 HD
ENDBRANCH  34  49
ENDBRANCH  29  33
ENDBRANCH   1  29
TORSDOF 7
