MODEL 1
REMARK VINA RESULT:   -12.324      0.000      0.000
REMARK INTER + INTRA:         -16.540
REMARK INTER:                 -15.926
REMARK INTRA:                  -0.613
REMARK UNBOUND:                -0.613
REMARK  Name = 
REMARK  6 active torsions:
REMARK  status: ('A' for Active; 'I' for Inactive)
REMARK    1  A    between atoms: C_1  and  C_2
REMARK    2  A    between atoms: C_2  and  N_3
REMARK    3  A    between atoms: C_2  and  C_22
REMARK    4  A    between atoms: N_3  and  C_4
REMARK    5  A    between atoms: N_9  and  C_10
REMARK    6  A    between atoms: C_20  and  N_21
REMARK                            x       y       z     vdW  Elec       q    Type
REMARK                         _______ _______ _______ _____ _____    ______ ____
ROOT
ATOM      1  C   UNL     1      -9.143  -9.262  18.042  0.00  0.00    +0.000 A 
ATOM      2  N   UNL     1      -8.935  -9.917  19.194  0.00  0.00    +0.000 NA
ATOM      3  C   UNL     1      -8.453  -9.202  20.218  0.00  0.00    +0.000 A 
ATOM      4  N   UNL     1      -8.144  -7.898  20.197  0.00  0.00    +0.000 NA
ATOM      5  C   UNL     1      -8.306  -7.258  19.031  0.00  0.00    +0.000 A 
ATOM      6  N   UNL     1      -7.934  -5.876  18.974  0.00  0.00    +0.000 N 
ATOM      7  C   UNL     1      -8.860  -7.887  17.904  0.00  0.00    +0.000 A 
ATOM      8  H   UNL     1      -8.308  -9.730  21.151  0.00  0.00    +0.000 HD
ATOM      9  H   UNL     1      -7.714  -5.720  17.985  0.00  0.00    +0.000 HD
ENDROOT
BRANCH   6  10
ATOM     10  C   UNL     1      -6.846  -5.369  19.759  0.00  0.00    +0.000 A 
ATOM     11  C   UNL     1      -5.515  -5.724  19.496  0.00  0.00    +0.000 A 
ATOM     12  C   UNL     1      -4.459  -5.106  20.173  0.00  0.00    +0.000 A 
ATOM     13  C   UNL     1      -4.704  -4.053  21.052  0.00  0.00    +0.000 A 
ATOM     14  C   UNL     1      -6.019  -3.691  21.356  0.00  0.00    +0.000 A 
ATOM     15  C   UNL     1      -6.311  -2.697  22.295  0.00  0.00    +0.000 A 
ATOM     16  C   UNL     1      -7.614  -2.558  22.757  0.00  0.00    +0.000 A 
ATOM     17  C   UNL     1      -8.615  -3.352  22.212  0.00  0.00    +0.000 A 
ATOM     18  N   UNL     1      -8.335  -4.186  21.199  0.00  0.00    +0.000 N 
ATOM     19  C   UNL     1      -7.085  -4.398  20.750  0.00  0.00    +0.000 A 
ATOM     20  H   UNL     1      -5.278  -6.515  18.785  0.00  0.00    +0.000 HD
ATOM     21  H   UNL     1      -3.439  -5.451  20.012  0.00  0.00    +0.000 HD
ATOM     22  H   UNL     1      -3.861  -3.571  21.547  0.00  0.00    +0.000 HD
ATOM     23  H   UNL     1      -5.521  -2.069  22.707  0.00  0.00    +0.000 HD
ATOM     24  H   UNL     1      -7.832  -1.864  23.567  0.00  0.00    +0.000 HD
ATOM     25  H   UNL     1      -9.636  -3.350  22.581  0.00  0.00    +0.000 HD
ATOM     26  H   UNL     1      -9.066  -4.771  20.786  0.00  0.00    +0.000 HD
ENDBRANCH   6  10
BRANCH   7  27
ATOM     27  N   UNL     1      -9.040  -7.220  16.651  0.00  0.00    +0.000 N 
ATOM     28  H   UNL     1      -8.461  -6.387  16.579  0.00  0.00    +0.000 HD
ATOM     29  H   UNL     1      -8.706  -7.866  15.928  0.00  0.00    +0.000 HD
ENDBRANCH   7  27
BRANCH   1  30
ATOM     30  N   UNL     1      -9.639  -9.954  16.910  0.00  0.00    +0.000 N 
ATOM     31  H   UNL     1     -10.263 -10.683  17.255  0.00  0.00    +0.000 HD
BRANCH  30  32
ATOM     32  C   UNL     1      -8.615 -10.552  16.028  0.00  0.00    +0.000 C 
ATOM     33  H   UNL     1      -7.607 -10.262  16.356  0.00  0.00    +0.000 HD
BRANCH  32  34
ATOM     34  C   UNL     1      -8.712 -12.075  16.104  0.00  0.00    +0.000 A 
ATOM     35  C   UNL     1      -8.728 -12.723  17.351  0.00  0.00    +0.000 A 
ATOM     36  C   UNL     1      -8.773 -14.114  17.423  0.00  0.00    +0.000 A 
ATOM     37  C   UNL     1      -8.806 -14.879  16.266  0.00  0.00    +0.000 A 
ATOM     38  C   UNL     1      -8.786 -14.255  15.021  0.00  0.00    +0.000 A 
ATOM     39  C   UNL     1      -8.738 -12.862  14.941  0.00  0.00    +0.000 A 
ATOM     40  H   UNL     1      -8.691 -12.145  18.274  0.00  0.00    +0.000 HD
ATOM     41  H   UNL     1      -8.781 -14.606  18.402  0.00  0.00    +0.000 HD
ATOM     42  H   UNL     1      -8.834 -15.964  16.329  0.00  0.00    +0.000 HD
ATOM     43  H   UNL     1      -8.798 -14.852  14.112  0.00  0.00    +0.000 HD
ATOM     44  H   UNL     1      -8.717 -12.390  13.960  0.00  0.00    +0.000 HD
ENDBRANCH  32  34
BRANCH  32  45
ATOM     45  C   UNL     1      -8.829 -10.097  14.577  0.00  0.00    +0.000 C 
ATOM     46  H   UNL     1      -9.097 -10.936  13.926  0.00  0.00    +0.000 HD
ATOM     47  H   UNL     1      -7.924  -9.645  14.157  0.00  0.00    +0.000 HD
ATOM     48  H   UNL     1      -9.636  -9.359  14.508  0.00  0.00    +0.000 HD
ENDBRANCH  32  45
ENDBRANCH  30  32
ENDBRANCH   1  30
TORSDOF 6
ENDMDL
MODEL 2
REMARK VINA RESULT:   -10.874      0.937      2.217
REMARK INTER + INTRA:         -14.666
REMARK INTER:                 -14.441
REMARK INTRA:                  -0.224
REMARK UNBOUND:                -0.613
REMARK  Name = 
REMARK  6 active torsions:
REMARK  status: ('A' for Active; 'I' for Inactive)
REMARK    1  A    between atoms: C_1  and  C_2
REMARK    2  A    between atoms: C_2  and  N_3
REMARK    3  A    between atoms: C_2  and  C_22
REMARK    4  A    between atoms: N_3  and  C_4
REMARK    5  A    between atoms: N_9  and  C_10
REMARK    6  A    between atoms: C_20  and  N_21
REMARK                            x       y       z     vdW  Elec       q    Type
REMARK                         _______ _______ _______ _____ _____    ______ ____
ROOT
ATOM      1  C   UNL     1      -9.530  -8.661  18.069  0.00  0.00    +0.000 A 
ATOM      2  N   UNL     1      -9.077  -9.288  19.165  0.00  0.00    +0.000 NA
ATOM      3  C   UNL     1      -8.771  -8.521  20.218  0.00  0.00    +0.000 A 
ATOM      4  N   UNL     1      -8.859  -7.185  20.277  0.00  0.00    +0.000 NA
ATOM      5  C   UNL     1      -9.264  -6.557  19.164  0.00  0.00    +0.000 A 
ATOM      6  N   UNL     1      -9.316  -5.126  19.190  0.00  0.00    +0.000 N 
ATOM      7  C   UNL     1      -9.669  -7.258  18.017  0.00  0.00    +0.000 A 
ATOM      8  H   UNL     1      -8.428  -9.033  21.107  0.00  0.00    +0.000 HD
ATOM      9  H   UNL     1      -9.205  -4.858  18.207  0.00  0.00    +0.000 HD
ENDROOT
BRANCH   6  10
ATOM     10  C   UNL     1      -8.384  -4.365  19.969  0.00  0.00    +0.000 A 
ATOM     11  C   UNL     1      -8.798  -3.314  20.800  0.00  0.00    +0.000 A 
ATOM     12  C   UNL     1      -7.898  -2.682  21.664  0.00  0.00    +0.000 A 
ATOM     13  C   UNL     1      -6.592  -3.152  21.789  0.00  0.00    +0.000 A 
ATOM     14  C   UNL     1      -6.139  -4.179  20.958  0.00  0.00    +0.000 A 
ATOM     15  C   UNL     1      -4.814  -4.624  20.992  0.00  0.00    +0.000 A 
ATOM     16  C   UNL     1      -4.346  -5.450  19.978  0.00  0.00    +0.000 A 
ATOM     17  C   UNL     1      -5.229  -5.888  18.999  0.00  0.00    +0.000 A 
ATOM     18  N   UNL     1      -6.532  -5.576  19.079  0.00  0.00    +0.000 N 
ATOM     19  C   UNL     1      -7.027  -4.738  20.008  0.00  0.00    +0.000 A 
ATOM     20  H   UNL     1      -9.822  -2.943  20.763  0.00  0.00    +0.000 HD
ATOM     21  H   UNL     1      -8.221  -1.817  22.242  0.00  0.00    +0.000 HD
ATOM     22  H   UNL     1      -5.918  -2.658  22.489  0.00  0.00    +0.000 HD
ATOM     23  H   UNL     1      -4.132  -4.286  21.773  0.00  0.00    +0.000 HD
ATOM     24  H   UNL     1      -3.290  -5.712  19.934  0.00  0.00    +0.000 HD
ATOM     25  H   UNL     1      -4.914  -6.469  18.137  0.00  0.00    +0.000 HD
ATOM     26  H   UNL     1      -7.191  -5.898  18.366  0.00  0.00    +0.000 HD
ENDBRANCH   6  10
BRANCH   7  27
ATOM     27  N   UNL     1     -10.104  -6.605  16.820  0.00  0.00    +0.000 N 
ATOM     28  H   UNL     1      -9.415  -5.939  16.480  0.00  0.00    +0.000 HD
ATOM     29  H   UNL     1     -10.178  -7.334  16.103  0.00  0.00    +0.000 HD
ENDBRANCH   7  27
BRANCH   1  30
ATOM     30  N   UNL     1      -9.862  -9.405  16.910  0.00  0.00    +0.000 N 
ATOM     31  H   UNL     1     -10.447 -10.182  17.212  0.00  0.00    +0.000 HD
BRANCH  30  32
ATOM     32  C   UNL     1      -8.715  -9.916  16.130  0.00  0.00    +0.000 C 
ATOM     33  H   UNL     1      -7.768  -9.568  16.564  0.00  0.00    +0.000 HD
BRANCH  32  34
ATOM     34  C   UNL     1      -8.718 -11.444  16.176  0.00  0.00    +0.000 A 
ATOM     35  C   UNL     1      -8.684 -12.116  17.409  0.00  0.00    +0.000 A 
ATOM     36  C   UNL     1      -8.643 -13.508  17.453  0.00  0.00    +0.000 A 
ATOM     37  C   UNL     1      -8.638 -14.251  16.282  0.00  0.00    +0.000 A 
ATOM     38  C   UNL     1      -8.666 -13.602  15.049  0.00  0.00    +0.000 A 
ATOM     39  C   UNL     1      -8.704 -12.208  14.997  0.00  0.00    +0.000 A 
ATOM     40  H   UNL     1      -8.675 -11.556  18.344  0.00  0.00    +0.000 HD
ATOM     41  H   UNL     1      -8.613 -14.019  18.422  0.00  0.00    +0.000 HD
ATOM     42  H   UNL     1      -8.599 -15.337  16.322  0.00  0.00    +0.000 HD
ATOM     43  H   UNL     1      -8.648 -14.180  14.128  0.00  0.00    +0.000 HD
ATOM     44  H   UNL     1      -8.720 -11.716  14.026  0.00  0.00    +0.000 HD
ENDBRANCH  32  34
BRANCH  32  45
ATOM     45  C   UNL     1      -8.811  -9.448  14.671  0.00  0.00    +0.000 C 
ATOM     46  H   UNL     1      -8.733 -10.287  13.971  0.00  0.00    +0.000 HD
ATOM     47  H   UNL     1      -8.008  -8.747  14.418  0.00  0.00    +0.000 HD
ATOM     48  H   UNL     1      -9.767  -8.947  14.477  0.00  0.00    +0.000 HD
ENDBRANCH  32  45
ENDBRANCH  30  32
ENDBRANCH   1  30
TORSDOF 6
ENDMDL
MODEL 3
REMARK VINA RESULT:   -10.829      2.956      3.909
REMARK INTER + INTRA:         -14.607
REMARK INTER:                 -13.802
REMARK INTRA:                  -0.805
REMARK UNBOUND:                -0.613
REMARK  Name = 
REMARK  6 active torsions:
REMARK  status: ('A' for Active; 'I' for Inactive)
REMARK    1  A    between atoms: C_1  and  C_2
REMARK    2  A    between atoms: C_2  and  N_3
REMARK    3  A    between atoms: C_2  and  C_22
REMARK    4  A    between atoms: N_3  and  C_4
REMARK    5  A    between atoms: N_9  and  C_10
REMARK    6  A    between atoms: C_20  and  N_21
REMARK                            x       y       z     vdW  Elec       q    Type
REMARK                         _______ _______ _______ _____ _____    ______ ____
ROOT
ATOM      1  C   UNL     1      -9.741  -8.099  17.183  0.00  0.00    +0.000 A 
ATOM      2  N   UNL     1      -8.481  -7.656  17.052  0.00  0.00    +0.000 NA
ATOM      3  C   UNL     1      -8.238  -6.398  17.440  0.00  0.00    +0.000 A 
ATOM      4  N   UNL     1      -9.137  -5.534  17.931  0.00  0.00    +0.000 NA
ATOM      5  C   UNL     1     -10.405  -5.963  18.013  0.00  0.00    +0.000 A 
ATOM      6  N   UNL     1     -11.389  -5.038  18.488  0.00  0.00    +0.000 N 
ATOM      7  C   UNL     1     -10.770  -7.280  17.693  0.00  0.00    +0.000 A 
ATOM      8  H   UNL     1      -7.217  -6.053  17.354  0.00  0.00    +0.000 HD
ATOM      9  H   UNL     1     -12.264  -5.373  18.072  0.00  0.00    +0.000 HD
ENDROOT
BRANCH   6  10
ATOM     10  C   UNL     1     -11.277  -3.633  18.220  0.00  0.00    +0.000 A 
ATOM     11  C   UNL     1     -11.954  -3.027  17.153  0.00  0.00    +0.000 A 
ATOM     12  C   UNL     1     -11.952  -1.637  16.997  0.00  0.00    +0.000 A 
ATOM     13  C   UNL     1     -11.360  -0.820  17.957  0.00  0.00    +0.000 A 
ATOM     14  C   UNL     1     -10.654  -1.392  19.019  0.00  0.00    +0.000 A 
ATOM     15  C   UNL     1      -9.974  -0.610  19.957  0.00  0.00    +0.000 A 
ATOM     16  C   UNL     1      -9.076  -1.216  20.828  0.00  0.00    +0.000 A 
ATOM     17  C   UNL     1      -8.940  -2.599  20.806  0.00  0.00    +0.000 A 
ATOM     18  N   UNL     1      -9.721  -3.339  20.005  0.00  0.00    +0.000 N 
ATOM     19  C   UNL     1     -10.566  -2.801  19.107  0.00  0.00    +0.000 A 
ATOM     20  H   UNL     1     -12.465  -3.628  16.402  0.00  0.00    +0.000 HD
ATOM     21  H   UNL     1     -12.417  -1.192  16.118  0.00  0.00    +0.000 HD
ATOM     22  H   UNL     1     -11.395   0.262  17.825  0.00  0.00    +0.000 HD
ATOM     23  H   UNL     1     -10.099   0.473  19.977  0.00  0.00    +0.000 HD
ATOM     24  H   UNL     1      -8.461  -0.605  21.486  0.00  0.00    +0.000 HD
ATOM     25  H   UNL     1      -8.202  -3.128  21.401  0.00  0.00    +0.000 HD
ATOM     26  H   UNL     1      -9.632  -4.358  19.985  0.00  0.00    +0.000 HD
ENDBRANCH   6  10
BRANCH   7  27
ATOM     27  N   UNL     1     -12.117  -7.755  17.775  0.00  0.00    +0.000 N 
ATOM     28  H   UNL     1     -12.342  -8.097  18.705  0.00  0.00    +0.000 HD
ATOM     29  H   UNL     1     -12.721  -6.942  17.613  0.00  0.00    +0.000 HD
ENDBRANCH   7  27
BRANCH   1  30
ATOM     30  N   UNL     1     -10.077  -9.416  16.782  0.00  0.00    +0.000 N 
ATOM     31  H   UNL     1     -10.117  -9.984  17.627  0.00  0.00    +0.000 HD
BRANCH  30  32
ATOM     32  C   UNL     1      -9.160 -10.038  15.804  0.00  0.00    +0.000 C 
ATOM     33  H   UNL     1      -8.192  -9.520  15.799  0.00  0.00    +0.000 HD
BRANCH  32  34
ATOM     34  C   UNL     1      -8.910 -11.492  16.204  0.00  0.00    +0.000 A 
ATOM     35  C   UNL     1      -8.778 -12.486  15.219  0.00  0.00    +0.000 A 
ATOM     36  C   UNL     1      -8.593 -13.818  15.581  0.00  0.00    +0.000 A 
ATOM     37  C   UNL     1      -8.533 -14.183  16.918  0.00  0.00    +0.000 A 
ATOM     38  C   UNL     1      -8.666 -13.214  17.909  0.00  0.00    +0.000 A 
ATOM     39  C   UNL     1      -8.855 -11.877  17.553  0.00  0.00    +0.000 A 
ATOM     40  H   UNL     1      -8.834 -12.227  14.161  0.00  0.00    +0.000 HD
ATOM     41  H   UNL     1      -8.496 -14.583  14.803  0.00  0.00    +0.000 HD
ATOM     42  H   UNL     1      -8.395 -15.226  17.195  0.00  0.00    +0.000 HD
ATOM     43  H   UNL     1      -8.633 -13.497  18.958  0.00  0.00    +0.000 HD
ATOM     44  H   UNL     1      -8.963 -11.132  18.340  0.00  0.00    +0.000 HD
ENDBRANCH  32  34
BRANCH  32  45
ATOM     45  C   UNL     1      -9.771  -9.992  14.396  0.00  0.00    +0.000 C 
ATOM     46  H   UNL     1      -8.998  -9.974  13.620  0.00  0.00    +0.000 HD
ATOM     47  H   UNL     1     -10.387  -9.098  14.252  0.00  0.00    +0.000 HD
ATOM     48  H   UNL     1     -10.403 -10.868  14.209  0.00  0.00    +0.000 HD
ENDBRANCH  32  45
ENDBRANCH  30  32
ENDBRANCH   1  30
TORSDOF 6
ENDMDL
MODEL 4
REMARK VINA RESULT:   -10.628      4.144      5.718
REMARK INTER + INTRA:         -14.348
REMARK INTER:                 -13.927
REMARK INTRA:                  -0.421
REMARK UNBOUND:                -0.613
REMARK  Name = 
REMARK  6 active torsions:
REMARK  status: ('A' for Active; 'I' for Inactive)
REMARK    1  A    between atoms: C_1  and  C_2
REMARK    2  A    between atoms: C_2  and  N_3
REMARK    3  A    between atoms: C_2  and  C_22
REMARK    4  A    between atoms: N_3  and  C_4
REMARK    5  A    between atoms: N_9  and  C_10
REMARK    6  A    between atoms: C_20  and  N_21
REMARK                            x       y       z     vdW  Elec       q    Type
REMARK                         _______ _______ _______ _____ _____    ______ ____
ROOT
ATOM      1  C   UNL     1      -9.163  -8.045  17.193  0.00  0.00    +0.000 A 
ATOM      2  N   UNL     1      -8.376  -7.314  17.997  0.00  0.00    +0.000 NA
ATOM      3  C   UNL     1      -8.807  -6.087  18.314  0.00  0.00    +0.000 A 
ATOM      4  N   UNL     1      -9.942  -5.513  17.892  0.00  0.00    +0.000 NA
ATOM      5  C   UNL     1     -10.702  -6.227  17.048  0.00  0.00    +0.000 A 
ATOM      6  N   UNL     1     -11.893  -5.612  16.545  0.00  0.00    +0.000 N 
ATOM      7  C   UNL     1     -10.383  -7.547  16.691  0.00  0.00    +0.000 A 
ATOM      8  H   UNL     1      -8.181  -5.510  18.981  0.00  0.00    +0.000 HD
ATOM      9  H   UNL     1     -12.059  -6.088  15.652  0.00  0.00    +0.000 HD
ENDROOT
BRANCH   6  10
ATOM     10  C   UNL     1     -11.958  -4.198  16.316  0.00  0.00    +0.000 A 
ATOM     11  C   UNL     1     -12.282  -3.296  17.340  0.00  0.00    +0.000 A 
ATOM     12  C   UNL     1     -12.194  -1.916  17.137  0.00  0.00    +0.000 A 
ATOM     13  C   UNL     1     -11.686  -1.409  15.943  0.00  0.00    +0.000 A 
ATOM     14  C   UNL     1     -11.378  -2.277  14.893  0.00  0.00    +0.000 A 
ATOM     15  C   UNL     1     -10.945  -1.806  13.650  0.00  0.00    +0.000 A 
ATOM     16  C   UNL     1     -10.908  -2.674  12.567  0.00  0.00    +0.000 A 
ATOM     17  C   UNL     1     -11.218  -4.015  12.762  0.00  0.00    +0.000 A 
ATOM     18  N   UNL     1     -11.476  -4.473  13.997  0.00  0.00    +0.000 N 
ATOM     19  C   UNL     1     -11.577  -3.667  15.069  0.00  0.00    +0.000 A 
ATOM     20  H   UNL     1     -12.645  -3.653  18.304  0.00  0.00    +0.000 HD
ATOM     21  H   UNL     1     -12.526  -1.233  17.918  0.00  0.00    +0.000 HD
ATOM     22  H   UNL     1     -11.604  -0.329  15.820  0.00  0.00    +0.000 HD
ATOM     23  H   UNL     1     -10.690  -0.755  13.510  0.00  0.00    +0.000 HD
ATOM     24  H   UNL     1     -10.680  -2.294  11.572  0.00  0.00    +0.000 HD
ATOM     25  H   UNL     1     -11.285  -4.729  11.947  0.00  0.00    +0.000 HD
ATOM     26  H   UNL     1     -11.700  -5.459  14.152  0.00  0.00    +0.000 HD
ENDBRANCH   6  10
BRANCH   7  27
ATOM     27  N   UNL     1     -11.181  -8.323  15.792  0.00  0.00    +0.000 N 
ATOM     28  H   UNL     1     -11.626  -9.107  16.261  0.00  0.00    +0.000 HD
ATOM     29  H   UNL     1     -11.940  -7.710  15.475  0.00  0.00    +0.000 HD
ENDBRANCH   7  27
BRANCH   1  30
ATOM     30  N   UNL     1      -8.766  -9.348  16.803  0.00  0.00    +0.000 N 
ATOM     31  H   UNL     1      -9.142  -9.507  15.870  0.00  0.00    +0.000 HD
BRANCH  30  32
ATOM     32  C   UNL     1      -9.188 -10.440  17.706  0.00  0.00    +0.000 C 
ATOM     33  H   UNL     1     -10.263 -10.368  17.920  0.00  0.00    +0.000 HD
BRANCH  32  34
ATOM     34  C   UNL     1      -8.936 -11.783  17.021  0.00  0.00    +0.000 A 
ATOM     35  C   UNL     1      -8.856 -11.861  15.620  0.00  0.00    +0.000 A 
ATOM     36  C   UNL     1      -8.669 -13.090  14.991  0.00  0.00    +0.000 A 
ATOM     37  C   UNL     1      -8.556 -14.254  15.738  0.00  0.00    +0.000 A 
ATOM     38  C   UNL     1      -8.637 -14.197  17.127  0.00  0.00    +0.000 A 
ATOM     39  C   UNL     1      -8.828 -12.970  17.764  0.00  0.00    +0.000 A 
ATOM     40  H   UNL     1      -8.954 -10.963  15.010  0.00  0.00    +0.000 HD
ATOM     41  H   UNL     1      -8.613 -13.137  13.898  0.00  0.00    +0.000 HD
ATOM     42  H   UNL     1      -8.417 -15.211  15.241  0.00  0.00    +0.000 HD
ATOM     43  H   UNL     1      -8.563 -15.109  17.715  0.00  0.00    +0.000 HD
ATOM     44  H   UNL     1      -8.895 -12.944  18.850  0.00  0.00    +0.000 HD
ENDBRANCH  32  34
BRANCH  32  45
ATOM     45  C   UNL     1      -8.399 -10.380  19.021  0.00  0.00    +0.000 C 
ATOM     46  H   UNL     1      -7.638  -9.592  19.000  0.00  0.00    +0.000 HD
ATOM     47  H   UNL     1      -7.877 -11.321  19.223  0.00  0.00    +0.000 HD
ATOM     48  H   UNL     1      -9.060 -10.174  19.871  0.00  0.00    +0.000 HD
ENDBRANCH  32  45
ENDBRANCH  30  32
ENDBRANCH   1  30
TORSDOF 6
ENDMDL
MODEL 5
REMARK VINA RESULT:   -10.622      1.516      2.415
REMARK INTER + INTRA:         -14.341
REMARK INTER:                 -14.715
REMARK INTRA:                   0.375
REMARK UNBOUND:                -0.613
REMARK  Name = 
REMARK  6 active torsions:
REMARK  status: ('A' for Active; 'I' for Inactive)
REMARK    1  A    between atoms: C_1  and  C_2
REMARK    2  A    between atoms: C_2  and  N_3
REMARK    3  A    between atoms: C_2  and  C_22
REMARK    4  A    between atoms: N_3  and  C_4
REMARK    5  A    between atoms: N_9  and  C_10
REMARK    6  A    between atoms: C_20  and  N_21
REMARK                            x       y       z     vdW  Elec       q    Type
REMARK                         _______ _______ _______ _____ _____    ______ ____
ROOT
ATOM      1  C   UNL     1      -8.775  -7.480  17.541  0.00  0.00    +0.000 A 
ATOM      2  N   UNL     1      -8.440  -8.365  18.492  0.00  0.00    +0.000 NA
ATOM      3  C   UNL     1      -8.321  -7.897  19.740  0.00  0.00    +0.000 A 
ATOM      4  N   UNL     1      -8.488  -6.625  20.127  0.00  0.00    +0.000 NA
ATOM      5  C   UNL     1      -8.773  -5.734  19.167  0.00  0.00    +0.000 A 
ATOM      6  N   UNL     1      -8.906  -4.361  19.553  0.00  0.00    +0.000 N 
ATOM      7  C   UNL     1      -8.982  -6.115  17.832  0.00  0.00    +0.000 A 
ATOM      8  H   UNL     1      -8.073  -8.618  20.506  0.00  0.00    +0.000 HD
ATOM      9  H   UNL     1      -8.679  -3.842  18.699  0.00  0.00    +0.000 HD
ENDROOT
BRANCH   6  10
ATOM     10  C   UNL     1      -8.129  -3.815  20.628  0.00  0.00    +0.000 A 
ATOM     11  C   UNL     1      -6.801  -4.204  20.853  0.00  0.00    +0.000 A 
ATOM     12  C   UNL     1      -6.014  -3.555  21.809  0.00  0.00    +0.000 A 
ATOM     13  C   UNL     1      -6.503  -2.441  22.488  0.00  0.00    +0.000 A 
ATOM     14  C   UNL     1      -7.830  -2.043  22.307  0.00  0.00    +0.000 A 
ATOM     15  C   UNL     1      -8.386  -0.983  23.029  0.00  0.00    +0.000 A 
ATOM     16  C   UNL     1      -9.763  -0.795  23.014  0.00  0.00    +0.000 A 
ATOM     17  C   UNL     1     -10.549  -1.612  22.210  0.00  0.00    +0.000 A 
ATOM     18  N   UNL     1      -9.974  -2.518  21.404  0.00  0.00    +0.000 N 
ATOM     19  C   UNL     1      -8.653  -2.776  21.420  0.00  0.00    +0.000 A 
ATOM     20  H   UNL     1      -6.366  -5.045  20.314  0.00  0.00    +0.000 HD
ATOM     21  H   UNL     1      -5.012  -3.924  22.025  0.00  0.00    +0.000 HD
ATOM     22  H   UNL     1      -5.860  -1.937  23.210  0.00  0.00    +0.000 HD
ATOM     23  H   UNL     1      -7.759  -0.338  23.646  0.00  0.00    +0.000 HD
ATOM     24  H   UNL     1     -10.217  -0.045  23.659  0.00  0.00    +0.000 HD
ATOM     25  H   UNL     1     -11.634  -1.572  22.211  0.00  0.00    +0.000 HD
ATOM     26  H   UNL     1     -10.543  -3.120  20.805  0.00  0.00    +0.000 HD
ENDBRANCH   6  10
BRANCH   7  27
ATOM     27  N   UNL     1      -9.287  -5.179  16.795  0.00  0.00    +0.000 N 
ATOM     28  H   UNL     1      -9.959  -5.554  16.131  0.00  0.00    +0.000 HD
ATOM     29  H   UNL     1      -9.744  -4.381  17.249  0.00  0.00    +0.000 HD
ENDBRANCH   7  27
BRANCH   1  30
ATOM     30  N   UNL     1      -8.907  -7.899  16.194  0.00  0.00    +0.000 N 
ATOM     31  H   UNL     1      -9.081  -7.063  15.637  0.00  0.00    +0.000 HD
BRANCH  30  32
ATOM     32  C   UNL     1      -9.966  -8.899  15.937  0.00  0.00    +0.000 C 
ATOM     33  H   UNL     1     -10.357  -8.792  14.916  0.00  0.00    +0.000 HD
BRANCH  32  34
ATOM     34  C   UNL     1      -9.374 -10.302  16.067  0.00  0.00    +0.000 A 
ATOM     35  C   UNL     1      -8.777 -10.925  14.958  0.00  0.00    +0.000 A 
ATOM     36  C   UNL     1      -8.275 -12.221  15.062  0.00  0.00    +0.000 A 
ATOM     37  C   UNL     1      -8.354 -12.913  16.262  0.00  0.00    +0.000 A 
ATOM     38  C   UNL     1      -8.946 -12.314  17.371  0.00  0.00    +0.000 A 
ATOM     39  C   UNL     1      -9.454 -11.017  17.273  0.00  0.00    +0.000 A 
ATOM     40  H   UNL     1      -8.713 -10.407  14.001  0.00  0.00    +0.000 HD
ATOM     41  H   UNL     1      -7.817 -12.696  14.188  0.00  0.00    +0.000 HD
ATOM     42  H   UNL     1      -7.967 -13.927  16.335  0.00  0.00    +0.000 HD
ATOM     43  H   UNL     1      -9.023 -12.858  18.309  0.00  0.00    +0.000 HD
ATOM     44  H   UNL     1      -9.919 -10.565  18.148  0.00  0.00    +0.000 HD
ENDBRANCH  32  34
BRANCH  32  45
ATOM     45  C   UNL     1     -11.113  -8.731  16.944  0.00  0.00    +0.000 C 
ATOM     46  H   UNL     1     -12.088  -8.915  16.480  0.00  0.00    +0.000 HD
ATOM     47  H   UNL     1     -11.143  -7.717  17.357  0.00  0.00    +0.000 HD
ATOM     48  H   UNL     1     -11.011  -9.431  17.781  0.00  0.00    +0.000 HD
ENDBRANCH  32  45
ENDBRANCH  30  32
ENDBRANCH   1  30
TORSDOF 6
ENDMDL
MODEL 6
REMARK VINA RESULT:   -10.556      2.140      4.090
REMARK INTER + INTRA:         -14.255
REMARK INTER:                 -13.681
REMARK INTRA:                  -0.574
REMARK UNBOUND:                -0.613
REMARK  Name = 
REMARK  6 active torsions:
REMARK  status: ('A' for Active; 'I' for Inactive)
REMARK    1  A    between atoms: C_1  and  C_2
REMARK    2  A    between atoms: C_2  and  N_3
REMARK    3  A    between atoms: C_2  and  C_22
REMARK    4  A    between atoms: N_3  and  C_4
REMARK    5  A    between atoms: N_9  and  C_10
REMARK    6  A    between atoms: C_20  and  N_21
REMARK                            x       y       z     vdW  Elec       q    Type
REMARK                         _______ _______ _______ _____ _____    ______ ____
ROOT
ATOM      1  C   UNL     1      -9.004  -6.343  18.287  0.00  0.00    +0.000 A 
ATOM      2  N   UNL     1     -10.187  -6.016  17.745  0.00  0.00    +0.000 NA
ATOM      3  C   UNL     1     -10.650  -4.786  17.997  0.00  0.00    +0.000 A 
ATOM      4  N   UNL     1     -10.052  -3.855  18.754  0.00  0.00    +0.000 NA
ATOM      5  C   UNL     1      -8.895  -4.202  19.336  0.00  0.00    +0.000 A 
ATOM      6  N   UNL     1      -8.265  -3.239  20.188  0.00  0.00    +0.000 N 
ATOM      7  C   UNL     1      -8.281  -5.443  19.097  0.00  0.00    +0.000 A 
ATOM      8  H   UNL     1     -11.592  -4.520  17.539  0.00  0.00    +0.000 HD
ATOM      9  H   UNL     1      -7.707  -3.808  20.833  0.00  0.00    +0.000 HD
ENDROOT
BRANCH   6  10
ATOM     10  C   UNL     1      -9.042  -2.317  20.964  0.00  0.00    +0.000 A 
ATOM     11  C   UNL     1      -9.732  -1.249  20.372  0.00  0.00    +0.000 A 
ATOM     12  C   UNL     1     -10.602  -0.452  21.122  0.00  0.00    +0.000 A 
ATOM     13  C   UNL     1     -10.877  -0.764  22.451  0.00  0.00    +0.000 A 
ATOM     14  C   UNL     1     -10.188  -1.804  23.080  0.00  0.00    +0.000 A 
ATOM     15  C   UNL     1     -10.373  -2.098  24.434  0.00  0.00    +0.000 A 
ATOM     16  C   UNL     1      -9.484  -2.953  25.073  0.00  0.00    +0.000 A 
ATOM     17  C   UNL     1      -8.482  -3.567  24.332  0.00  0.00    +0.000 A 
ATOM     18  N   UNL     1      -8.425  -3.392  23.002  0.00  0.00    +0.000 N 
ATOM     19  C   UNL     1      -9.226  -2.536  22.343  0.00  0.00    +0.000 A 
ATOM     20  H   UNL     1      -9.576  -0.996  19.324  0.00  0.00    +0.000 HD
ATOM     21  H   UNL     1     -11.066   0.420  20.663  0.00  0.00    +0.000 HD
ATOM     22  H   UNL     1     -11.580  -0.141  23.006  0.00  0.00    +0.000 HD
ATOM     23  H   UNL     1     -11.171  -1.622  25.004  0.00  0.00    +0.000 HD
ATOM     24  H   UNL     1      -9.551  -3.101  26.150  0.00  0.00    +0.000 HD
ATOM     25  H   UNL     1      -7.708  -4.182  24.781  0.00  0.00    +0.000 HD
ATOM     26  H   UNL     1      -7.695  -3.844  22.446  0.00  0.00    +0.000 HD
ENDBRANCH   6  10
BRANCH   7  27
ATOM     27  N   UNL     1      -7.047  -5.830  19.709  0.00  0.00    +0.000 N 
ATOM     28  H   UNL     1      -6.269  -5.778  19.058  0.00  0.00    +0.000 HD
ATOM     29  H   UNL     1      -6.857  -5.137  20.441  0.00  0.00    +0.000 HD
ENDBRANCH   7  27
BRANCH   1  30
ATOM     30  N   UNL     1      -8.457  -7.632  18.075  0.00  0.00    +0.000 N 
ATOM     31  H   UNL     1      -8.296  -7.727  17.073  0.00  0.00    +0.000 HD
BRANCH  30  32
ATOM     32  C   UNL     1      -9.278  -8.762  18.559  0.00  0.00    +0.000 C 
ATOM     33  H   UNL     1     -10.339  -8.480  18.595  0.00  0.00    +0.000 HD
BRANCH  32  34
ATOM     34  C   UNL     1      -9.138  -9.936  17.591  0.00  0.00    +0.000 A 
ATOM     35  C   UNL     1      -8.704 -11.190  18.054  0.00  0.00    +0.000 A 
ATOM     36  C   UNL     1      -8.535 -12.250  17.167  0.00  0.00    +0.000 A 
ATOM     37  C   UNL     1      -8.795 -12.086  15.814  0.00  0.00    +0.000 A 
ATOM     38  C   UNL     1      -9.223 -10.850  15.335  0.00  0.00    +0.000 A 
ATOM     39  C   UNL     1      -9.391  -9.782  16.218  0.00  0.00    +0.000 A 
ATOM     40  H   UNL     1      -8.481 -11.342  19.110  0.00  0.00    +0.000 HD
ATOM     41  H   UNL     1      -8.191 -13.221  17.541  0.00  0.00    +0.000 HD
ATOM     42  H   UNL     1      -8.654 -12.916  15.125  0.00  0.00    +0.000 HD
ATOM     43  H   UNL     1      -9.414 -10.713  14.273  0.00  0.00    +0.000 HD
ATOM     44  H   UNL     1      -9.720  -8.820  15.827  0.00  0.00    +0.000 HD
ENDBRANCH  32  34
BRANCH  32  45
ATOM     45  C   UNL     1      -8.817  -9.195  19.958  0.00  0.00    +0.000 C 
ATOM     46  H   UNL     1      -8.712  -8.338  20.632  0.00  0.00    +0.000 HD
ATOM     47  H   UNL     1      -7.843  -9.696  19.927  0.00  0.00    +0.000 HD
ATOM     48  H   UNL     1      -9.534  -9.885  20.416  0.00  0.00    +0.000 HD
ENDBRANCH  32  45
ENDBRANCH  30  32
ENDBRANCH   1  30
TORSDOF 6
ENDMDL
MODEL 7
REMARK VINA RESULT:   -10.418      3.184      4.430
REMARK INTER + INTRA:         -14.077
REMARK INTER:                 -13.568
REMARK INTRA:                  -0.508
REMARK UNBOUND:                -0.613
REMARK  Name = 
REMARK  6 active torsions:
REMARK  status: ('A' for Active; 'I' for Inactive)
REMARK    1  A    between atoms: C_1  and  C_2
REMARK    2  A    between atoms: C_2  and  N_3
REMARK    3  A    between atoms: C_2  and  C_22
REMARK    4  A    between atoms: N_3  and  C_4
REMARK    5  A    between atoms: N_9  and  C_10
REMARK    6  A    between atoms: C_20  and  N_21
REMARK                            x       y       z     vdW  Elec       q    Type
REMARK                         _______ _______ _______ _____ _____    ______ ____
ROOT
ATOM      1  C   UNL     1      -9.194  -6.743  17.837  0.00  0.00    +0.000 A 
ATOM      2  N   UNL     1      -8.043  -6.290  18.356  0.00  0.00    +0.000 NA
ATOM      3  C   UNL     1      -8.089  -5.119  19.002  0.00  0.00    +0.000 A 
ATOM      4  N   UNL     1      -9.173  -4.347  19.166  0.00  0.00    +0.000 NA
ATOM      5  C   UNL     1     -10.311  -4.778  18.603  0.00  0.00    +0.000 A 
ATOM      6  N   UNL     1     -11.469  -3.943  18.724  0.00  0.00    +0.000 N 
ATOM      7  C   UNL     1     -10.399  -6.019  17.952  0.00  0.00    +0.000 A 
ATOM      8  H   UNL     1      -7.163  -4.769  19.438  0.00  0.00    +0.000 HD
ATOM      9  H   UNL     1     -12.042  -4.198  17.913  0.00  0.00    +0.000 HD
ENDROOT
BRANCH   6  10
ATOM     10  C   UNL     1     -11.352  -2.514  18.758  0.00  0.00    +0.000 A 
ATOM     11  C   UNL     1     -11.289  -1.749  17.584  0.00  0.00    +0.000 A 
ATOM     12  C   UNL     1     -11.326  -0.352  17.635  0.00  0.00    +0.000 A 
ATOM     13  C   UNL     1     -11.527   0.305  18.846  0.00  0.00    +0.000 A 
ATOM     14  C   UNL     1     -11.568  -0.424  20.037  0.00  0.00    +0.000 A 
ATOM     15  C   UNL     1     -11.685   0.201  21.281  0.00  0.00    +0.000 A 
ATOM     16  C   UNL     1     -11.454  -0.533  22.438  0.00  0.00    +0.000 A 
ATOM     17  C   UNL     1     -11.200  -1.895  22.337  0.00  0.00    +0.000 A 
ATOM     18  N   UNL     1     -11.251  -2.502  21.141  0.00  0.00    +0.000 N 
ATOM     19  C   UNL     1     -11.417  -1.831  19.987  0.00  0.00    +0.000 A 
ATOM     20  H   UNL     1     -11.172  -2.226  16.612  0.00  0.00    +0.000 HD
ATOM     21  H   UNL     1     -11.196   0.225  16.720  0.00  0.00    +0.000 HD
ATOM     22  H   UNL     1     -11.578   1.395  18.854  0.00  0.00    +0.000 HD
ATOM     23  H   UNL     1     -11.899   1.268  21.351  0.00  0.00    +0.000 HD
ATOM     24  H   UNL     1     -11.433  -0.032  23.405  0.00  0.00    +0.000 HD
ATOM     25  H   UNL     1     -10.934  -2.511  23.191  0.00  0.00    +0.000 HD
ATOM     26  H   UNL     1     -11.071  -3.505  21.056  0.00  0.00    +0.000 HD
ENDBRANCH   6  10
BRANCH   7  27
ATOM     27  N   UNL     1     -11.605  -6.494  17.346  0.00  0.00    +0.000 N 
ATOM     28  H   UNL     1     -11.419  -7.185  16.625  0.00  0.00    +0.000 HD
ATOM     29  H   UNL     1     -12.128  -6.979  18.083  0.00  0.00    +0.000 HD
ENDBRANCH   7  27
BRANCH   1  30
ATOM     30  N   UNL     1      -9.221  -7.969  17.128  0.00  0.00    +0.000 N 
ATOM     31  H   UNL     1      -9.873  -7.851  16.353  0.00  0.00    +0.000 HD
BRANCH  30  32
ATOM     32  C   UNL     1      -9.597  -9.157  17.922  0.00  0.00    +0.000 C 
ATOM     33  H   UNL     1     -10.683  -9.179  18.091  0.00  0.00    +0.000 HD
BRANCH  32  34
ATOM     34  C   UNL     1      -9.219 -10.419  17.147  0.00  0.00    +0.000 A 
ATOM     35  C   UNL     1      -8.848 -11.588  17.834  0.00  0.00    +0.000 A 
ATOM     36  C   UNL     1      -8.462 -12.727  17.131  0.00  0.00    +0.000 A 
ATOM     37  C   UNL     1      -8.441 -12.726  15.744  0.00  0.00    +0.000 A 
ATOM     38  C   UNL     1      -8.802 -11.576  15.046  0.00  0.00    +0.000 A 
ATOM     39  C   UNL     1      -9.187 -10.430  15.743  0.00  0.00    +0.000 A 
ATOM     40  H   UNL     1      -8.844 -11.611  18.924  0.00  0.00    +0.000 HD
ATOM     41  H   UNL     1      -8.170 -13.630  17.679  0.00  0.00    +0.000 HD
ATOM     42  H   UNL     1      -8.131 -13.616  15.200  0.00  0.00    +0.000 HD
ATOM     43  H   UNL     1      -8.773 -11.566  13.958  0.00  0.00    +0.000 HD
ATOM     44  H   UNL     1      -9.460  -9.537  15.183  0.00  0.00    +0.000 HD
ENDBRANCH  32  34
BRANCH  32  45
ATOM     45  C   UNL     1      -8.869  -9.148  19.273  0.00  0.00    +0.000 C 
ATOM     46  H   UNL     1      -8.349  -8.200  19.446  0.00  0.00    +0.000 HD
ATOM     47  H   UNL     1      -8.114  -9.940  19.331  0.00  0.00    +0.000 HD
ATOM     48  H   UNL     1      -9.570  -9.292  20.103  0.00  0.00    +0.000 HD
ENDBRANCH  32  45
ENDBRANCH  30  32
ENDBRANCH   1  30
TORSDOF 6
ENDMDL
MODEL 8
REMARK VINA RESULT:   -10.342      3.755      4.941
REMARK INTER + INTRA:         -13.979
REMARK INTER:                 -13.280
REMARK INTRA:                  -0.699
REMARK UNBOUND:                -0.613
REMARK  Name = 
REMARK  6 active torsions:
REMARK  status: ('A' for Active; 'I' for Inactive)
REMARK    1  A    between atoms: C_1  and  C_2
REMARK    2  A    between atoms: C_2  and  N_3
REMARK    3  A    between atoms: C_2  and  C_22
REMARK    4  A    between atoms: N_3  and  C_4
REMARK    5  A    between atoms: N_9  and  C_10
REMARK    6  A    between atoms: C_20  and  N_21
REMARK                            x       y       z     vdW  Elec       q    Type
REMARK                         _______ _______ _______ _____ _____    ______ ____
ROOT
ATOM      1  C   UNL     1      -9.465  -7.872  18.061  0.00  0.00    +0.000 A 
ATOM      2  N   UNL     1      -8.233  -7.355  18.186  0.00  0.00    +0.000 NA
ATOM      3  C   UNL     1      -8.150  -6.048  18.462  0.00  0.00    +0.000 A 
ATOM      4  N   UNL     1      -9.179  -5.203  18.610  0.00  0.00    +0.000 NA
ATOM      5  C   UNL     1     -10.407  -5.711  18.435  0.00  0.00    +0.000 A 
ATOM      6  N   UNL     1     -11.518  -4.814  18.539  0.00  0.00    +0.000 N 
ATOM      7  C   UNL     1     -10.623  -7.079  18.201  0.00  0.00    +0.000 A 
ATOM      8  H   UNL     1      -7.155  -5.641  18.584  0.00  0.00    +0.000 HD
ATOM      9  H   UNL     1     -12.246  -5.255  17.968  0.00  0.00    +0.000 HD
ENDROOT
BRANCH   6  10
ATOM     10  C   UNL     1     -11.404  -3.443  18.135  0.00  0.00    +0.000 A 
ATOM     11  C   UNL     1     -11.262  -2.405  19.069  0.00  0.00    +0.000 A 
ATOM     12  C   UNL     1     -11.002  -1.096  18.654  0.00  0.00    +0.000 A 
ATOM     13  C   UNL     1     -10.780  -0.813  17.308  0.00  0.00    +0.000 A 
ATOM     14  C   UNL     1     -10.939  -1.816  16.349  0.00  0.00    +0.000 A 
ATOM     15  C   UNL     1     -10.807  -1.557  14.982  0.00  0.00    +0.000 A 
ATOM     16  C   UNL     1     -11.231  -2.509  14.063  0.00  0.00    +0.000 A 
ATOM     17  C   UNL     1     -11.696  -3.735  14.523  0.00  0.00    +0.000 A 
ATOM     18  N   UNL     1     -11.662  -4.018  15.835  0.00  0.00    +0.000 N 
ATOM     19  C   UNL     1     -11.312  -3.115  16.769  0.00  0.00    +0.000 A 
ATOM     20  H   UNL     1     -11.388  -2.593  20.134  0.00  0.00    +0.000 HD
ATOM     21  H   UNL     1     -10.975  -0.292  19.388  0.00  0.00    +0.000 HD
ATOM     22  H   UNL     1     -10.553   0.213  17.014  0.00  0.00    +0.000 HD
ATOM     23  H   UNL     1     -10.427  -0.597  14.630  0.00  0.00    +0.000 HD
ATOM     24  H   UNL     1     -11.237  -2.274  13.000  0.00  0.00    +0.000 HD
ATOM     25  H   UNL     1     -12.115  -4.491  13.867  0.00  0.00    +0.000 HD
ATOM     26  H   UNL     1     -11.997  -4.919  16.183  0.00  0.00    +0.000 HD
ENDBRANCH   6  10
BRANCH   7  27
ATOM     27  N   UNL     1     -11.926  -7.638  18.013  0.00  0.00    +0.000 N 
ATOM     28  H   UNL     1     -11.932  -8.644  18.162  0.00  0.00    +0.000 HD
ATOM     29  H   UNL     1     -12.523  -7.236  18.743  0.00  0.00    +0.000 HD
ENDBRANCH   7  27
BRANCH   1  30
ATOM     30  N   UNL     1      -9.633  -9.245  17.757  0.00  0.00    +0.000 N 
ATOM     31  H   UNL     1      -9.094  -9.771  18.444  0.00  0.00    +0.000 HD
BRANCH  30  32
ATOM     32  C   UNL     1      -9.234  -9.649  16.392  0.00  0.00    +0.000 C 
ATOM     33  H   UNL     1      -8.315  -9.128  16.089  0.00  0.00    +0.000 HD
BRANCH  32  34
ATOM     34  C   UNL     1      -8.946 -11.150  16.377  0.00  0.00    +0.000 A 
ATOM     35  C   UNL     1      -8.864 -11.844  15.157  0.00  0.00    +0.000 A 
ATOM     36  C   UNL     1      -8.644 -13.220  15.141  0.00  0.00    +0.000 A 
ATOM     37  C   UNL     1      -8.501 -13.924  16.328  0.00  0.00    +0.000 A 
ATOM     38  C   UNL     1      -8.585 -13.255  17.546  0.00  0.00    +0.000 A 
ATOM     39  C   UNL     1      -8.808 -11.877  17.570  0.00  0.00    +0.000 A 
ATOM     40  H   UNL     1      -8.984 -11.315  14.211  0.00  0.00    +0.000 HD
ATOM     41  H   UNL     1      -8.586 -13.748  14.183  0.00  0.00    +0.000 HD
ATOM     42  H   UNL     1      -8.338 -15.000  16.309  0.00  0.00    +0.000 HD
ATOM     43  H   UNL     1      -8.488 -13.807  18.479  0.00  0.00    +0.000 HD
ATOM     44  H   UNL     1      -8.876 -11.370  18.531  0.00  0.00    +0.000 HD
ENDBRANCH  32  34
BRANCH  32  45
ATOM     45  C   UNL     1     -10.355  -9.332  15.393  0.00  0.00    +0.000 C 
ATOM     46  H   UNL     1     -10.321  -8.287  15.066  0.00  0.00    +0.000 HD
ATOM     47  H   UNL     1     -11.346  -9.496  15.831  0.00  0.00    +0.000 HD
ATOM     48  H   UNL     1     -10.276  -9.958  14.496  0.00  0.00    +0.000 HD
ENDBRANCH  32  45
ENDBRANCH  30  32
ENDBRANCH   1  30
TORSDOF 6
ENDMDL
MODEL 9
REMARK VINA RESULT:   -10.261      1.967      9.009
REMARK INTER + INTRA:         -13.874
REMARK INTER:                 -13.607
REMARK INTRA:                  -0.267
REMARK UNBOUND:                -0.613
REMARK  Name = 
REMARK  6 active torsions:
REMARK  status: ('A' for Active; 'I' for Inactive)
REMARK    1  A    between atoms: C_1  and  C_2
REMARK    2  A    between atoms: C_2  and  N_3
REMARK    3  A    between atoms: C_2  and  C_22
REMARK    4  A    between atoms: N_3  and  C_4
REMARK    5  A    between atoms: N_9  and  C_10
REMARK    6  A    between atoms: C_20  and  N_21
REMARK                            x       y       z     vdW  Elec       q    Type
REMARK                         _______ _______ _______ _____ _____    ______ ____
ROOT
ATOM      1  C   UNL     1      -9.754  -4.729  18.079  0.00  0.00    +0.000 A 
ATOM      2  N   UNL     1     -10.935  -4.687  17.444  0.00  0.00    +0.000 NA
ATOM      3  C   UNL     1     -11.431  -5.852  17.010  0.00  0.00    +0.000 A 
ATOM      4  N   UNL     1     -10.853  -7.054  17.135  0.00  0.00    +0.000 NA
ATOM      5  C   UNL     1      -9.649  -7.087  17.724  0.00  0.00    +0.000 A 
ATOM      6  N   UNL     1      -8.992  -8.355  17.823  0.00  0.00    +0.000 N 
ATOM      7  C   UNL     1      -9.055  -5.939  18.273  0.00  0.00    +0.000 A 
ATOM      8  H   UNL     1     -12.394  -5.815  16.519  0.00  0.00    +0.000 HD
ATOM      9  H   UNL     1      -7.997  -8.114  17.871  0.00  0.00    +0.000 HD
ENDROOT
BRANCH   6  10
ATOM     10  C   UNL     1      -9.160  -9.358  16.811  0.00  0.00    +0.000 A 
ATOM     11  C   UNL     1      -9.470  -9.025  15.484  0.00  0.00    +0.000 A 
ATOM     12  C   UNL     1      -9.483 -10.001  14.483  0.00  0.00    +0.000 A 
ATOM     13  C   UNL     1      -9.091 -11.308  14.766  0.00  0.00    +0.000 A 
ATOM     14  C   UNL     1      -8.801 -11.679  16.081  0.00  0.00    +0.000 A 
ATOM     15  C   UNL     1      -8.484 -12.997  16.422  0.00  0.00    +0.000 A 
ATOM     16  C   UNL     1      -8.467 -13.370  17.760  0.00  0.00    +0.000 A 
ATOM     17  C   UNL     1      -8.678 -12.404  18.736  0.00  0.00    +0.000 A 
ATOM     18  N   UNL     1      -8.821 -11.116  18.387  0.00  0.00    +0.000 N 
ATOM     19  C   UNL     1      -8.899 -10.709  17.107  0.00  0.00    +0.000 A 
ATOM     20  H   UNL     1      -9.743  -8.006  15.213  0.00  0.00    +0.000 HD
ATOM     21  H   UNL     1      -9.804  -9.737  13.476  0.00  0.00    +0.000 HD
ATOM     22  H   UNL     1      -9.085 -12.043  13.961  0.00  0.00    +0.000 HD
ATOM     23  H   UNL     1      -8.306 -13.746  15.649  0.00  0.00    +0.000 HD
ATOM     24  H   UNL     1      -8.332 -14.416  18.031  0.00  0.00    +0.000 HD
ATOM     25  H   UNL     1      -8.756 -12.639  19.793  0.00  0.00    +0.000 HD
ATOM     26  H   UNL     1      -8.972 -10.396  19.098  0.00  0.00    +0.000 HD
ENDBRANCH   6  10
BRANCH   7  27
ATOM     27  N   UNL     1      -7.772  -5.955  18.906  0.00  0.00    +0.000 N 
ATOM     28  H   UNL     1      -7.321  -6.862  18.824  0.00  0.00    +0.000 HD
ATOM     29  H   UNL     1      -7.185  -5.293  18.387  0.00  0.00    +0.000 HD
ENDBRANCH   7  27
BRANCH   1  30
ATOM     30  N   UNL     1      -9.159  -3.535  18.555  0.00  0.00    +0.000 N 
ATOM     31  H   UNL     1      -8.243  -3.784  18.925  0.00  0.00    +0.000 HD
BRANCH  30  32
ATOM     32  C   UNL     1      -9.930  -2.803  19.582  0.00  0.00    +0.000 C 
ATOM     33  H   UNL     1     -10.751  -3.426  19.963  0.00  0.00    +0.000 HD
BRANCH  32  34
ATOM     34  C   UNL     1      -9.012  -2.468  20.756  0.00  0.00    +0.000 A 
ATOM     35  C   UNL     1      -9.268  -1.343  21.558  0.00  0.00    +0.000 A 
ATOM     36  C   UNL     1      -8.408  -1.011  22.603  0.00  0.00    +0.000 A 
ATOM     37  C   UNL     1      -7.290  -1.787  22.870  0.00  0.00    +0.000 A 
ATOM     38  C   UNL     1      -7.017  -2.904  22.083  0.00  0.00    +0.000 A 
ATOM     39  C   UNL     1      -7.872  -3.241  21.032  0.00  0.00    +0.000 A 
ATOM     40  H   UNL     1     -10.133  -0.710  21.362  0.00  0.00    +0.000 HD
ATOM     41  H   UNL     1      -8.617  -0.128  23.218  0.00  0.00    +0.000 HD
ATOM     42  H   UNL     1      -6.618  -1.518  23.682  0.00  0.00    +0.000 HD
ATOM     43  H   UNL     1      -6.133  -3.507  22.280  0.00  0.00    +0.000 HD
ATOM     44  H   UNL     1      -7.641  -4.113  20.423  0.00  0.00    +0.000 HD
ENDBRANCH  32  34
BRANCH  32  45
ATOM     45  C   UNL     1     -10.504  -1.506  18.994  0.00  0.00    +0.000 C 
ATOM     46  H   UNL     1      -9.744  -0.942  18.442  0.00  0.00    +0.000 HD
ATOM     47  H   UNL     1     -10.886  -0.842  19.777  0.00  0.00    +0.000 HD
ATOM     48  H   UNL     1     -11.326  -1.714  18.300  0.00  0.00    +0.000 HD
ENDBRANCH  32  45
ENDBRANCH  30  32
ENDBRANCH   1  30
TORSDOF 6
ENDMDL
