REMARK  Name = 
REMARK  5 active torsions:
REMARK  status: ('A' for Active; 'I' for Inactive)
REMARK    1  A    between atoms: C_2  and  C_3
REMARK    2  A    between atoms: C_4  and  N_5
REMARK    3  A    between atoms: C_12  and  C_13
REMARK    4  A    between atoms: C_20  and  C_21
REMARK    5  A    between atoms: C_25  and  C_26
REMARK                            x       y       z     vdW  Elec       q    Type
REMARK                         _______ _______ _______ _____ _____    ______ ____
ROOT
ATOM      1  C   UNL     1      -2.770   0.764  -1.072  0.00  0.00    +0.000 C 
ATOM      2  C   UNL     1      -2.710   2.113  -1.076  0.00  0.00    +0.000 C 
ATOM      3  O   UNL     1      -1.494   2.785  -1.079  0.00  0.00    +0.000 OA
ATOM      4  C   UNL     1      -0.306   2.083  -1.154  0.00  0.00    +0.000 C 
ATOM      5  C   UNL     1      -0.259   0.743  -1.081  0.00  0.00    +0.000 C 
ATOM      6  C   UNL     1       1.069   0.100  -1.279  0.00  0.00    +0.000 C 
ATOM      7  O   UNL     1       1.116  -1.064  -1.670  0.00  0.00    +0.000 OA
ATOM      8  C   UNL     1       2.336   0.921  -1.148  0.00  0.00    +0.000 C 
ATOM      9  C   UNL     1       2.102   2.285  -0.479  0.00  0.00    +0.000 C 
ATOM     10  C   UNL     1       0.921   2.954  -1.208  0.00  0.00    +0.000 C 
ATOM     11  C   UNL     1      -1.509  -0.101  -0.958  0.00  0.00    +0.000 C 
ATOM     12  H   UNL     1       2.705   1.082  -2.170  0.00  0.00    +0.000 HD
ATOM     13  H   UNL     1       3.084   0.322  -0.619  0.00  0.00    +0.000 HD
ATOM     14  H   UNL     1       2.989   2.908  -0.662  0.00  0.00    +0.000 HD
ATOM     15  H   UNL     1       1.179   3.127  -2.261  0.00  0.00    +0.000 HD
ATOM     16  H   UNL     1       0.718   3.940  -0.774  0.00  0.00    +0.000 HD
ATOM     17  H   UNL     1      -1.517  -0.747  -1.842  0.00  0.00    +0.000 HD
ENDROOT
BRANCH   9  18
ATOM     18  C   UNL     1       1.973   2.189   1.044  0.00  0.00    +0.000 A 
ATOM     19  C   UNL     1       3.030   1.643   1.792  0.00  0.00    +0.000 A 
ATOM     20  C   UNL     1       2.942   1.515   3.181  0.00  0.00    +0.000 A 
ATOM     21  C   UNL     1       1.798   1.936   3.852  0.00  0.00    +0.000 A 
ATOM     22  C   UNL     1       0.752   2.502   3.137  0.00  0.00    +0.000 A 
ATOM     23  C   UNL     1       0.845   2.640   1.751  0.00  0.00    +0.000 A 
ATOM     24  H   UNL     1       3.939   1.299   1.302  0.00  0.00    +0.000 HD
ATOM     25  H   UNL     1       3.761   1.070   3.740  0.00  0.00    +0.000 HD
ATOM     26  H   UNL     1       1.717   1.812   4.928  0.00  0.00    +0.000 HD
ATOM     27  H   UNL     1      -0.151   2.818   3.653  0.00  0.00    +0.000 HD
ATOM     28  H   UNL     1      -0.006   3.093   1.253  0.00  0.00    +0.000 HD
ENDBRANCH   9  18
BRANCH  11  29
ATOM     29  C   UNL     1      -1.616  -0.975   0.323  0.00  0.00    +0.000 C 
ATOM     30  C   UNL     1      -1.485  -0.159   1.572  0.00  0.00    +0.000 C 
ATOM     31  N   UNL     1      -0.540  -0.561   2.353  0.00  0.00    +0.000 NA
ATOM     32  N   UNL     1       0.076  -1.696   1.759  0.00  0.00    +0.000 NA
ATOM     33  C   UNL     1      -0.528  -1.966   0.636  0.00  0.00    +0.000 C 
ATOM     34  H   UNL     1      -2.572  -1.508   0.370  0.00  0.00    +0.000 HD
ATOM     35  H   UNL     1      -2.156   0.679   1.800  0.00  0.00    +0.000 HD
BRANCH  33  36
ATOM     36  C   UNL     1      -0.229  -3.166  -0.175  0.00  0.00    +0.000 A 
ATOM     37  C   UNL     1       0.778  -4.039   0.264  0.00  0.00    +0.000 A 
ATOM     38  C   UNL     1       1.092  -5.180  -0.481  0.00  0.00    +0.000 A 
ATOM     39  C   UNL     1       0.416  -5.429  -1.669  0.00  0.00    +0.000 A 
ATOM     40  F   UNL     1       0.719  -6.516  -2.387  0.00  0.00    +0.000 F 
ATOM     41  C   UNL     1      -0.578  -4.569  -2.120  0.00  0.00    +0.000 A 
ATOM     42  C   UNL     1      -0.917  -3.448  -1.361  0.00  0.00    +0.000 A 
ATOM     43  H   UNL     1       1.322  -3.838   1.184  0.00  0.00    +0.000 HD
ATOM     44  H   UNL     1       1.859  -5.865  -0.142  0.00  0.00    +0.000 HD
ATOM     45  H   UNL     1      -1.083  -4.774  -3.058  0.00  0.00    +0.000 HD
ATOM     46  H   UNL     1      -1.711  -2.814  -1.733  0.00  0.00    +0.000 HD
ENDBRANCH  33  36
ENDBRANCH  11  29
BRANCH   2  47
ATOM     47  N   UNL     1      -3.783   2.967  -1.071  0.00  0.00    +0.000 N 
ATOM     48  H   UNL     1      -4.673   2.595  -1.390  0.00  0.00    +0.000 HD
ATOM     49  H   UNL     1      -3.562   3.884  -1.451  0.00  0.00    +0.000 HD
ENDBRANCH   2  47
BRANCH   1  51
ATOM     50  N   UNL     1      -5.048  -0.458  -1.184  0.00  0.00    +0.000 NA
ATOM     51  C   UNL     1      -4.034   0.102  -1.139  0.00  0.00    +0.000 C 
ENDBRANCH   1  51
TORSDOF 5
