MODEL 1
REMARK VINA RESULT:   -11.182      0.000      0.000
REMARK INTER + INTRA:         -14.747
REMARK INTER:                 -14.124
REMARK INTRA:                  -0.622
REMARK UNBOUND:                -0.622
REMARK  Name = 
REMARK  5 active torsions:
REMARK  status: ('A' for Active; 'I' for Inactive)
REMARK    1  A    between atoms: N_1  and  C_2
REMARK    2  A    between atoms: N_4  and  C_5
REMARK    3  A    between atoms: C_5  and  C_6
REMARK    4  A    between atoms: C_14  and  N_15
REMARK    5  A    between atoms: N_15  and  C_16
REMARK                            x       y       z     vdW  Elec       q    Type
REMARK                         _______ _______ _______ _____ _____    ______ ____
ROOT
ATOM      1  C   UNL     1     -10.430  -6.757  18.183  0.00  0.00    +0.000 A 
ATOM      2  C   UNL     1     -10.280  -5.397  18.512  0.00  0.00    +0.000 A 
ATOM      3  N   UNL     1     -11.463  -4.657  18.517  0.00  0.00    +0.000 N 
ATOM      4  N   UNL     1      -9.098  -4.855  18.802  0.00  0.00    +0.000 NA
ATOM      5  C   UNL     1      -8.042  -5.706  18.821  0.00  0.00    +0.000 A 
ATOM      6  N   UNL     1      -8.123  -7.020  18.582  0.00  0.00    +0.000 N 
ATOM      7  C   UNL     1      -9.296  -7.579  18.265  0.00  0.00    +0.000 A 
ATOM      8  H   UNL     1     -12.090  -4.997  19.250  0.00  0.00    +0.000 HD
ATOM      9  H   UNL     1      -7.077  -5.308  19.098  0.00  0.00    +0.000 HD
ATOM     10  H   UNL     1      -7.301  -7.611  18.655  0.00  0.00    +0.000 HD
ENDROOT
BRANCH   1  11
ATOM     11  N   UNL     1     -11.719  -7.305  17.935  0.00  0.00    +0.000 N 
ATOM     12  H   UNL     1     -12.268  -7.274  18.802  0.00  0.00    +0.000 HD
ATOM     13  H   UNL     1     -12.213  -6.811  17.191  0.00  0.00    +0.000 HD
ENDBRANCH   1  11
BRANCH   3  14
ATOM     14  C   UNL     1     -11.464  -3.204  18.483  0.00  0.00    +0.000 C 
ATOM     15  H   UNL     1     -10.516  -2.833  18.892  0.00  0.00    +0.000 HD
ATOM     16  H   UNL     1     -12.281  -2.791  19.085  0.00  0.00    +0.000 HD
BRANCH  14  17
ATOM     17  C   UNL     1     -11.602  -2.737  17.070  0.00  0.00    +0.000 A 
ATOM     18  C   UNL     1     -12.596  -2.086  16.366  0.00  0.00    +0.000 A 
ATOM     19  C   UNL     1     -12.064  -1.813  15.081  0.00  0.00    +0.000 A 
ATOM     20  C   UNL     1     -10.781  -2.307  15.083  0.00  0.00    +0.000 A 
ATOM     21  O   UNL     1     -10.488  -2.864  16.287  0.00  0.00    +0.000 OA
ATOM     22  H   UNL     1     -13.575  -1.815  16.738  0.00  0.00    +0.000 HD
ATOM     23  H   UNL     1     -12.549  -1.306  14.257  0.00  0.00    +0.000 HD
ATOM     24  H   UNL     1      -9.987  -2.332  14.348  0.00  0.00    +0.000 HD
ENDBRANCH  14  17
ENDBRANCH   3  14
BRANCH   7  25
ATOM     25  N   UNL     1      -9.445  -8.958  18.012  0.00  0.00    +0.000 N 
ATOM     26  H   UNL     1      -9.190  -9.482  18.857  0.00  0.00    +0.000 HD
BRANCH  25  27
ATOM     27  C   UNL     1      -9.285  -9.692  16.820  0.00  0.00    +0.000 A 
ATOM     28  C   UNL     1      -9.632  -9.111  15.589  0.00  0.00    +0.000 A 
ATOM     29  C   UNL     1      -9.257  -9.714  14.396  0.00  0.00    +0.000 A 
ATOM     30  C   UNL     1      -8.613 -10.941  14.419  0.00  0.00    +0.000 A 
ATOM     31  C   UNL     1      -8.604 -11.685  15.599  0.00  0.00    +0.000 A 
ATOM     32  C   UNL     1      -8.388 -13.068  15.525  0.00  0.00    +0.000 A 
ATOM     33  C   UNL     1      -8.500 -13.863  16.661  0.00  0.00    +0.000 A 
ATOM     34  C   UNL     1      -8.703 -13.269  17.899  0.00  0.00    +0.000 A 
ATOM     35  C   UNL     1      -8.871 -11.883  17.992  0.00  0.00    +0.000 A 
ATOM     36  C   UNL     1      -8.906 -11.065  16.834  0.00  0.00    +0.000 A 
ATOM     37  H   UNL     1     -10.234  -8.208  15.541  0.00  0.00    +0.000 HD
ATOM     38  H   UNL     1      -9.506  -9.262  13.440  0.00  0.00    +0.000 HD
ATOM     39  H   UNL     1      -8.227 -11.361  13.494  0.00  0.00    +0.000 HD
ATOM     40  H   UNL     1      -8.235 -13.550  14.562  0.00  0.00    +0.000 HD
ATOM     41  H   UNL     1      -8.452 -14.945  16.570  0.00  0.00    +0.000 HD
ATOM     42  H   UNL     1      -8.770 -13.891  18.788  0.00  0.00    +0.000 HD
ATOM     43  H   UNL     1      -9.059 -11.484  18.984  0.00  0.00    +0.000 HD
ENDBRANCH  25  27
ENDBRANCH   7  25
TORSDOF 5
ENDMDL
MODEL 2
REMARK VINA RESULT:   -10.848      1.780      2.600
REMARK INTER + INTRA:         -14.324
REMARK INTER:                 -13.669
REMARK INTRA:                  -0.655
REMARK UNBOUND:                -0.622
REMARK  Name = 
REMARK  5 active torsions:
REMARK  status: ('A' for Active; 'I' for Inactive)
REMARK    1  A    between atoms: N_1  and  C_2
REMARK    2  A    between atoms: N_4  and  C_5
REMARK    3  A    between atoms: C_5  and  C_6
REMARK    4  A    between atoms: C_14  and  N_15
REMARK    5  A    between atoms: N_15  and  C_16
REMARK                            x       y       z     vdW  Elec       q    Type
REMARK                         _______ _______ _______ _____ _____    ______ ____
ROOT
ATOM      1  C   UNL     1     -10.097  -6.369  18.436  0.00  0.00    +0.000 A 
ATOM      2  C   UNL     1      -9.726  -5.058  18.791  0.00  0.00    +0.000 A 
ATOM      3  N   UNL     1     -10.782  -4.151  18.882  0.00  0.00    +0.000 N 
ATOM      4  N   UNL     1      -8.462  -4.709  19.027  0.00  0.00    +0.000 NA
ATOM      5  C   UNL     1      -7.547  -5.709  18.964  0.00  0.00    +0.000 A 
ATOM      6  N   UNL     1      -7.839  -6.987  18.696  0.00  0.00    +0.000 N 
ATOM      7  C   UNL     1      -9.097  -7.353  18.433  0.00  0.00    +0.000 A 
ATOM      8  H   UNL     1     -11.414  -4.417  19.641  0.00  0.00    +0.000 HD
ATOM      9  H   UNL     1      -6.520  -5.468  19.196  0.00  0.00    +0.000 HD
ATOM     10  H   UNL     1      -7.112  -7.696  18.708  0.00  0.00    +0.000 HD
ENDROOT
BRANCH   1  11
ATOM     11  N   UNL     1     -11.465  -6.709  18.248  0.00  0.00    +0.000 N 
ATOM     12  H   UNL     1     -11.728  -7.430  18.930  0.00  0.00    +0.000 HD
ATOM     13  H   UNL     1     -12.081  -5.901  18.339  0.00  0.00    +0.000 HD
ENDBRANCH   1  11
BRANCH   3  14
ATOM     14  C   UNL     1     -10.565  -2.713  18.886  0.00  0.00    +0.000 C 
ATOM     15  H   UNL     1     -11.302  -2.235  18.229  0.00  0.00    +0.000 HD
ATOM     16  H   UNL     1      -9.565  -2.459  18.518  0.00  0.00    +0.000 HD
BRANCH  14  17
ATOM     17  C   UNL     1     -10.734  -2.186  20.274  0.00  0.00    +0.000 A 
ATOM     18  C   UNL     1     -11.823  -1.804  21.031  0.00  0.00    +0.000 A 
ATOM     19  C   UNL     1     -11.329  -1.510  22.326  0.00  0.00    +0.000 A 
ATOM     20  C   UNL     1      -9.974  -1.735  22.281  0.00  0.00    +0.000 A 
ATOM     21  O   UNL     1      -9.603  -2.152  21.042  0.00  0.00    +0.000 OA
ATOM     22  H   UNL     1     -12.853  -1.768  20.703  0.00  0.00    +0.000 HD
ATOM     23  H   UNL     1     -11.891  -1.187  23.192  0.00  0.00    +0.000 HD
ATOM     24  H   UNL     1      -9.177  -1.658  23.008  0.00  0.00    +0.000 HD
ENDBRANCH  14  17
ENDBRANCH   3  14
BRANCH   7  25
ATOM     25  N   UNL     1      -9.466  -8.685  18.153  0.00  0.00    +0.000 N 
ATOM     26  H   UNL     1      -9.377  -9.243  19.010  0.00  0.00    +0.000 HD
BRANCH  25  27
ATOM     27  C   UNL     1      -9.342  -9.439  16.970  0.00  0.00    +0.000 A 
ATOM     28  C   UNL     1      -9.764  -8.896  15.745  0.00  0.00    +0.000 A 
ATOM     29  C   UNL     1      -9.429  -9.514  14.548  0.00  0.00    +0.000 A 
ATOM     30  C   UNL     1      -8.748 -10.720  14.565  0.00  0.00    +0.000 A 
ATOM     31  C   UNL     1      -8.660 -11.438  15.757  0.00  0.00    +0.000 A 
ATOM     32  C   UNL     1      -8.406 -12.815  15.701  0.00  0.00    +0.000 A 
ATOM     33  C   UNL     1      -8.439 -13.589  16.856  0.00  0.00    +0.000 A 
ATOM     34  C   UNL     1      -8.599 -12.974  18.091  0.00  0.00    +0.000 A 
ATOM     35  C   UNL     1      -8.805 -11.592  18.164  0.00  0.00    +0.000 A 
ATOM     36  C   UNL     1      -8.921 -10.801  16.993  0.00  0.00    +0.000 A 
ATOM     37  H   UNL     1     -10.395  -8.012  15.709  0.00  0.00    +0.000 HD
ATOM     38  H   UNL     1      -9.737  -9.090  13.596  0.00  0.00    +0.000 HD
ATOM     39  H   UNL     1      -8.393 -11.148  13.631  0.00  0.00    +0.000 HD
ATOM     40  H   UNL     1      -8.284 -13.313  14.741  0.00  0.00    +0.000 HD
ATOM     41  H   UNL     1      -8.362 -14.671  16.786  0.00  0.00    +0.000 HD
ATOM     42  H   UNL     1      -8.605 -13.578  18.994  0.00  0.00    +0.000 HD
ATOM     43  H   UNL     1      -8.957 -11.177  19.156  0.00  0.00    +0.000 HD
ENDBRANCH  25  27
ENDBRANCH   7  25
TORSDOF 5
ENDMDL
MODEL 3
REMARK VINA RESULT:   -10.824      2.631      3.827
REMARK INTER + INTRA:         -14.294
REMARK INTER:                 -14.101
REMARK INTRA:                  -0.193
REMARK UNBOUND:                -0.622
REMARK  Name = 
REMARK  5 active torsions:
REMARK  status: ('A' for Active; 'I' for Inactive)
REMARK    1  A    between atoms: N_1  and  C_2
REMARK    2  A    between atoms: N_4  and  C_5
REMARK    3  A    between atoms: C_5  and  C_6
REMARK    4  A    between atoms: C_14  and  N_15
REMARK    5  A    between atoms: N_15  and  C_16
REMARK                            x       y       z     vdW  Elec       q    Type
REMARK                         _______ _______ _______ _____ _____    ______ ____
ROOT
ATOM      1  C   UNL     1      -8.939  -6.590  19.005  0.00  0.00    +0.000 A 
ATOM      2  C   UNL     1      -9.256  -5.219  18.993  0.00  0.00    +0.000 A 
ATOM      3  N   UNL     1      -8.448  -4.420  19.804  0.00  0.00    +0.000 N 
ATOM      4  N   UNL     1     -10.250  -4.718  18.262  0.00  0.00    +0.000 NA
ATOM      5  C   UNL     1     -10.912  -5.602  17.473  0.00  0.00    +0.000 A 
ATOM      6  N   UNL     1     -10.622  -6.905  17.387  0.00  0.00    +0.000 N 
ATOM      7  C   UNL     1      -9.644  -7.432  18.131  0.00  0.00    +0.000 A 
ATOM      8  H   UNL     1      -7.484  -4.430  19.461  0.00  0.00    +0.000 HD
ATOM      9  H   UNL     1     -11.693  -5.219  16.832  0.00  0.00    +0.000 HD
ATOM     10  H   UNL     1     -11.127  -7.505  16.743  0.00  0.00    +0.000 HD
ENDROOT
BRANCH   1  11
ATOM     11  N   UNL     1      -7.834  -7.072  19.759  0.00  0.00    +0.000 N 
ATOM     12  H   UNL     1      -7.405  -7.859  19.258  0.00  0.00    +0.000 HD
ATOM     13  H   UNL     1      -7.138  -6.347  19.933  0.00  0.00    +0.000 HD
ENDBRANCH   1  11
BRANCH   3  14
ATOM     14  C   UNL     1      -8.834  -3.073  20.189  0.00  0.00    +0.000 C 
ATOM     15  H   UNL     1      -9.919  -2.961  20.072  0.00  0.00    +0.000 HD
ATOM     16  H   UNL     1      -8.344  -2.321  19.560  0.00  0.00    +0.000 HD
BRANCH  14  17
ATOM     17  C   UNL     1      -8.471  -2.838  21.620  0.00  0.00    +0.000 A 
ATOM     18  C   UNL     1      -8.509  -1.738  22.453  0.00  0.00    +0.000 A 
ATOM     19  C   UNL     1      -8.145  -2.199  23.743  0.00  0.00    +0.000 A 
ATOM     20  C   UNL     1      -7.913  -3.548  23.619  0.00  0.00    +0.000 A 
ATOM     21  O   UNL     1      -8.115  -3.948  22.336  0.00  0.00    +0.000 OA
ATOM     22  H   UNL     1      -8.791  -0.731  22.176  0.00  0.00    +0.000 HD
ATOM     23  H   UNL     1      -8.073  -1.623  24.656  0.00  0.00    +0.000 HD
ATOM     24  H   UNL     1      -7.623  -4.325  24.313  0.00  0.00    +0.000 HD
ENDBRANCH  14  17
ENDBRANCH   3  14
BRANCH   7  25
ATOM     25  N   UNL     1      -9.288  -8.795  18.076  0.00  0.00    +0.000 N 
ATOM     26  H   UNL     1      -8.580  -8.983  18.795  0.00  0.00    +0.000 HD
BRANCH  25  27
ATOM     27  C   UNL     1      -9.241  -9.685  16.986  0.00  0.00    +0.000 A 
ATOM     28  C   UNL     1      -9.713  -9.277  15.728  0.00  0.00    +0.000 A 
ATOM     29  C   UNL     1      -9.453 -10.039  14.597  0.00  0.00    +0.000 A 
ATOM     30  C   UNL     1      -8.798 -11.254  14.723  0.00  0.00    +0.000 A 
ATOM     31  C   UNL     1      -8.666 -11.830  15.986  0.00  0.00    +0.000 A 
ATOM     32  C   UNL     1      -8.445 -13.210  16.081  0.00  0.00    +0.000 A 
ATOM     33  C   UNL     1      -8.436 -13.843  17.320  0.00  0.00    +0.000 A 
ATOM     34  C   UNL     1      -8.520 -13.084  18.479  0.00  0.00    +0.000 A 
ATOM     35  C   UNL     1      -8.692 -11.697  18.399  0.00  0.00    +0.000 A 
ATOM     36  C   UNL     1      -8.850 -11.046  17.149  0.00  0.00    +0.000 A 
ATOM     37  H   UNL     1     -10.325  -8.386  15.618  0.00  0.00    +0.000 HD
ATOM     38  H   UNL     1      -9.800  -9.721  13.618  0.00  0.00    +0.000 HD
ATOM     39  H   UNL     1      -8.502 -11.798  13.831  0.00  0.00    +0.000 HD
ATOM     40  H   UNL     1      -8.384 -13.820  15.182  0.00  0.00    +0.000 HD
ATOM     41  H   UNL     1      -8.387 -14.927  17.374  0.00  0.00    +0.000 HD
ATOM     42  H   UNL     1      -8.494 -13.578  19.447  0.00  0.00    +0.000 HD
ATOM     43  H   UNL     1      -8.784 -11.165  19.341  0.00  0.00    +0.000 HD
ENDBRANCH  25  27
ENDBRANCH   7  25
TORSDOF 5
ENDMDL
MODEL 4
REMARK VINA RESULT:   -10.504      1.960      2.932
REMARK INTER + INTRA:         -13.890
REMARK INTER:                 -13.453
REMARK INTRA:                  -0.437
REMARK UNBOUND:                -0.622
REMARK  Name = 
REMARK  5 active torsions:
REMARK  status: ('A' for Active; 'I' for Inactive)
REMARK    1  A    between atoms: N_1  and  C_2
REMARK    2  A    between atoms: N_4  and  C_5
REMARK    3  A    between atoms: C_5  and  C_6
REMARK    4  A    between atoms: C_14  and  N_15
REMARK    5  A    between atoms: N_15  and  C_16
REMARK                            x       y       z     vdW  Elec       q    Type
REMARK                         _______ _______ _______ _____ _____    ______ ____
ROOT
ATOM      1  C   UNL     1     -11.057  -6.669  16.717  0.00  0.00    +0.000 A 
ATOM      2  C   UNL     1     -11.002  -5.264  16.690  0.00  0.00    +0.000 A 
ATOM      3  N   UNL     1     -11.836  -4.623  17.608  0.00  0.00    +0.000 N 
ATOM      4  N   UNL     1     -10.211  -4.592  15.855  0.00  0.00    +0.000 NA
ATOM      5  C   UNL     1      -9.408  -5.344  15.062  0.00  0.00    +0.000 A 
ATOM      6  N   UNL     1      -9.362  -6.681  15.081  0.00  0.00    +0.000 N 
ATOM      7  C   UNL     1     -10.165  -7.375  15.895  0.00  0.00    +0.000 A 
ATOM      8  H   UNL     1     -11.543  -4.840  18.563  0.00  0.00    +0.000 HD
ATOM      9  H   UNL     1      -8.720  -4.830  14.406  0.00  0.00    +0.000 HD
ATOM     10  H   UNL     1      -8.705  -7.184  14.493  0.00  0.00    +0.000 HD
ENDROOT
BRANCH   1  11
ATOM     11  N   UNL     1     -11.875  -7.345  17.664  0.00  0.00    +0.000 N 
ATOM     12  H   UNL     1     -12.838  -6.995  17.585  0.00  0.00    +0.000 HD
ATOM     13  H   UNL     1     -11.860  -8.357  17.537  0.00  0.00    +0.000 HD
ENDBRANCH   1  11
BRANCH   3  14
ATOM     14  C   UNL     1     -12.175  -3.215  17.490  0.00  0.00    +0.000 C 
ATOM     15  H   UNL     1     -13.245  -3.082  17.694  0.00  0.00    +0.000 HD
ATOM     16  H   UNL     1     -11.971  -2.838  16.481  0.00  0.00    +0.000 HD
BRANCH  14  17
ATOM     17  C   UNL     1     -11.386  -2.426  18.485  0.00  0.00    +0.000 A 
ATOM     18  C   UNL     1     -10.372  -1.494  18.386  0.00  0.00    +0.000 A 
ATOM     19  C   UNL     1     -10.133  -1.020  19.700  0.00  0.00    +0.000 A 
ATOM     20  C   UNL     1     -11.018  -1.684  20.515  0.00  0.00    +0.000 A 
ATOM     21  O   UNL     1     -11.788  -2.535  19.787  0.00  0.00    +0.000 OA
ATOM     22  H   UNL     1      -9.880  -1.174  17.477  0.00  0.00    +0.000 HD
ATOM     23  H   UNL     1      -9.415  -0.274  20.014  0.00  0.00    +0.000 HD
ATOM     24  H   UNL     1     -11.221  -1.659  21.577  0.00  0.00    +0.000 HD
ENDBRANCH  14  17
ENDBRANCH   3  14
BRANCH   7  25
ATOM     25  N   UNL     1     -10.155  -8.783  15.965  0.00  0.00    +0.000 N 
ATOM     26  H   UNL     1     -11.062  -9.139  15.640  0.00  0.00    +0.000 HD
BRANCH  25  27
ATOM     27  C   UNL     1      -9.490  -9.650  16.852  0.00  0.00    +0.000 A 
ATOM     28  C   UNL     1      -8.997  -9.160  18.073  0.00  0.00    +0.000 A 
ATOM     29  C   UNL     1      -8.564 -10.035  19.060  0.00  0.00    +0.000 A 
ATOM     30  C   UNL     1      -8.535 -11.397  18.806  0.00  0.00    +0.000 A 
ATOM     31  C   UNL     1      -8.662 -11.849  17.493  0.00  0.00    +0.000 A 
ATOM     32  C   UNL     1      -8.181 -13.125  17.167  0.00  0.00    +0.000 A 
ATOM     33  C   UNL     1      -8.171 -13.561  15.846  0.00  0.00    +0.000 A 
ATOM     34  C   UNL     1      -8.757 -12.779  14.859  0.00  0.00    +0.000 A 
ATOM     35  C   UNL     1      -9.285 -11.523  15.180  0.00  0.00    +0.000 A 
ATOM     36  C   UNL     1      -9.178 -10.993  16.492  0.00  0.00    +0.000 A 
ATOM     37  H   UNL     1      -8.904  -8.093  18.256  0.00  0.00    +0.000 HD
ATOM     38  H   UNL     1      -8.198  -9.664  20.014  0.00  0.00    +0.000 HD
ATOM     39  H   UNL     1      -8.297 -12.088  19.611  0.00  0.00    +0.000 HD
ATOM     40  H   UNL     1      -7.714 -13.747  17.926  0.00  0.00    +0.000 HD
ATOM     41  H   UNL     1      -7.686 -14.499  15.589  0.00  0.00    +0.000 HD
ATOM     42  H   UNL     1      -8.766 -13.131  13.831  0.00  0.00    +0.000 HD
ATOM     43  H   UNL     1      -9.699 -10.947  14.359  0.00  0.00    +0.000 HD
ENDBRANCH  25  27
ENDBRANCH   7  25
TORSDOF 5
ENDMDL
MODEL 5
REMARK VINA RESULT:   -10.501      2.726      4.124
REMARK INTER + INTRA:         -13.885
REMARK INTER:                 -13.467
REMARK INTRA:                  -0.418
REMARK UNBOUND:                -0.622
REMARK  Name = 
REMARK  5 active torsions:
REMARK  status: ('A' for Active; 'I' for Inactive)
REMARK    1  A    between atoms: N_1  and  C_2
REMARK    2  A    between atoms: N_4  and  C_5
REMARK    3  A    between atoms: C_5  and  C_6
REMARK    4  A    between atoms: C_14  and  N_15
REMARK    5  A    between atoms: N_15  and  C_16
REMARK                            x       y       z     vdW  Elec       q    Type
REMARK                         _______ _______ _______ _____ _____    ______ ____
ROOT
ATOM      1  C   UNL     1      -9.523  -5.763  18.975  0.00  0.00    +0.000 A 
ATOM      2  C   UNL     1      -8.829  -4.682  19.548  0.00  0.00    +0.000 A 
ATOM      3  N   UNL     1      -9.614  -3.565  19.839  0.00  0.00    +0.000 N 
ATOM      4  N   UNL     1      -7.521  -4.720  19.797  0.00  0.00    +0.000 NA
ATOM      5  C   UNL     1      -6.896  -5.892  19.521  0.00  0.00    +0.000 A 
ATOM      6  N   UNL     1      -7.507  -6.980  19.037  0.00  0.00    +0.000 N 
ATOM      7  C   UNL     1      -8.814  -6.955  18.757  0.00  0.00    +0.000 A 
ATOM      8  H   UNL     1     -10.302  -3.795  20.560  0.00  0.00    +0.000 HD
ATOM      9  H   UNL     1      -5.845  -5.972  19.756  0.00  0.00    +0.000 HD
ATOM     10  H   UNL     1      -6.989  -7.842  18.894  0.00  0.00    +0.000 HD
ENDROOT
BRANCH   1  11
ATOM     11  N   UNL     1     -10.930  -5.699  18.777  0.00  0.00    +0.000 N 
ATOM     12  H   UNL     1     -11.321  -6.646  18.847  0.00  0.00    +0.000 HD
ATOM     13  H   UNL     1     -11.387  -5.081  19.449  0.00  0.00    +0.000 HD
ENDBRANCH   1  11
BRANCH   3  14
ATOM     14  C   UNL     1      -9.030  -2.259  20.095  0.00  0.00    +0.000 C 
ATOM     15  H   UNL     1      -9.679  -1.484  19.668  0.00  0.00    +0.000 HD
ATOM     16  H   UNL     1      -8.040  -2.166  19.636  0.00  0.00    +0.000 HD
BRANCH  14  17
ATOM     17  C   UNL     1      -8.918  -2.042  21.570  0.00  0.00    +0.000 A 
ATOM     18  C   UNL     1      -7.862  -1.811  22.429  0.00  0.00    +0.000 A 
ATOM     19  C   UNL     1      -8.429  -1.564  23.704  0.00  0.00    +0.000 A 
ATOM     20  C   UNL     1      -9.791  -1.654  23.544  0.00  0.00    +0.000 A 
ATOM     21  O   UNL     1     -10.099  -1.937  22.251  0.00  0.00    +0.000 OA
ATOM     22  H   UNL     1      -6.812  -1.794  22.168  0.00  0.00    +0.000 HD
ATOM     23  H   UNL     1      -7.911  -1.334  24.626  0.00  0.00    +0.000 HD
ATOM     24  H   UNL     1     -10.633  -1.539  24.213  0.00  0.00    +0.000 HD
ENDBRANCH  14  17
ENDBRANCH   3  14
BRANCH   7  25
ATOM     25  N   UNL     1      -9.512  -8.071  18.254  0.00  0.00    +0.000 N 
ATOM     26  H   UNL     1     -10.507  -7.974  18.486  0.00  0.00    +0.000 HD
BRANCH  25  27
ATOM     27  C   UNL     1      -9.098  -9.405  18.076  0.00  0.00    +0.000 A 
ATOM     28  C   UNL     1      -8.494 -10.098  19.138  0.00  0.00    +0.000 A 
ATOM     29  C   UNL     1      -8.306 -11.472  19.066  0.00  0.00    +0.000 A 
ATOM     30  C   UNL     1      -8.636 -12.150  17.904  0.00  0.00    +0.000 A 
ATOM     31  C   UNL     1      -8.878 -11.427  16.737  0.00  0.00    +0.000 A 
ATOM     32  C   UNL     1      -8.749 -12.075  15.500  0.00  0.00    +0.000 A 
ATOM     33  C   UNL     1      -8.854 -11.359  14.312  0.00  0.00    +0.000 A 
ATOM     34  C   UNL     1      -9.214 -10.019  14.346  0.00  0.00    +0.000 A 
ATOM     35  C   UNL     1      -9.393  -9.372  15.574  0.00  0.00    +0.000 A 
ATOM     36  C   UNL     1      -9.150 -10.041  16.801  0.00  0.00    +0.000 A 
ATOM     37  H   UNL     1      -8.123  -9.574  20.015  0.00  0.00    +0.000 HD
ATOM     38  H   UNL     1      -7.855 -12.018  19.891  0.00  0.00    +0.000 HD
ATOM     39  H   UNL     1      -8.588 -13.236  17.885  0.00  0.00    +0.000 HD
ATOM     40  H   UNL     1      -8.462 -13.123  15.456  0.00  0.00    +0.000 HD
ATOM     41  H   UNL     1      -8.632 -11.846  13.366  0.00  0.00    +0.000 HD
ATOM     42  H   UNL     1      -9.315  -9.466  13.416  0.00  0.00    +0.000 HD
ATOM     43  H   UNL     1      -9.641  -8.316  15.534  0.00  0.00    +0.000 HD
ENDBRANCH  25  27
ENDBRANCH   7  25
TORSDOF 5
ENDMDL
MODEL 6
REMARK VINA RESULT:   -10.466      2.263      3.875
REMARK INTER + INTRA:         -13.841
REMARK INTER:                 -13.318
REMARK INTRA:                  -0.523
REMARK UNBOUND:                -0.622
REMARK  Name = 
REMARK  5 active torsions:
REMARK  status: ('A' for Active; 'I' for Inactive)
REMARK    1  A    between atoms: N_1  and  C_2
REMARK    2  A    between atoms: N_4  and  C_5
REMARK    3  A    between atoms: C_5  and  C_6
REMARK    4  A    between atoms: C_14  and  N_15
REMARK    5  A    between atoms: N_15  and  C_16
REMARK                            x       y       z     vdW  Elec       q    Type
REMARK                         _______ _______ _______ _____ _____    ______ ____
ROOT
ATOM      1  C   UNL     1      -9.129  -6.154  17.587  0.00  0.00    +0.000 A 
ATOM      2  C   UNL     1      -9.791  -4.964  17.940  0.00  0.00    +0.000 A 
ATOM      3  N   UNL     1      -8.963  -3.951  18.425  0.00  0.00    +0.000 N 
ATOM      4  N   UNL     1     -11.108  -4.812  17.817  0.00  0.00    +0.000 NA
ATOM      5  C   UNL     1     -11.780  -5.857  17.272  0.00  0.00    +0.000 A 
ATOM      6  N   UNL     1     -11.206  -6.992  16.856  0.00  0.00    +0.000 N 
ATOM      7  C   UNL     1      -9.888  -7.173  16.992  0.00  0.00    +0.000 A 
ATOM      8  H   UNL     1      -8.319  -3.639  17.695  0.00  0.00    +0.000 HD
ATOM      9  H   UNL     1     -12.843  -5.748  17.116  0.00  0.00    +0.000 HD
ATOM     10  H   UNL     1     -11.760  -7.719  16.415  0.00  0.00    +0.000 HD
ENDROOT
BRANCH   1  11
ATOM     11  N   UNL     1      -7.714  -6.252  17.682  0.00  0.00    +0.000 N 
ATOM     12  H   UNL     1      -7.379  -5.592  18.395  0.00  0.00    +0.000 HD
ATOM     13  H   UNL     1      -7.405  -7.198  17.910  0.00  0.00    +0.000 HD
ENDBRANCH   1  11
BRANCH   3  14
ATOM     14  C   UNL     1      -9.489  -2.809  19.156  0.00  0.00    +0.000 C 
ATOM     15  H   UNL     1     -10.577  -2.912  19.252  0.00  0.00    +0.000 HD
ATOM     16  H   UNL     1      -9.280  -1.869  18.633  0.00  0.00    +0.000 HD
BRANCH  14  17
ATOM     17  C   UNL     1      -8.880  -2.765  20.521  0.00  0.00    +0.000 A 
ATOM     18  C   UNL     1      -9.028  -1.933  21.612  0.00  0.00    +0.000 A 
ATOM     19  C   UNL     1      -8.257  -2.501  22.657  0.00  0.00    +0.000 A 
ATOM     20  C   UNL     1      -7.692  -3.642  22.141  0.00  0.00    +0.000 A 
ATOM     21  O   UNL     1      -8.069  -3.816  20.847  0.00  0.00    +0.000 OA
ATOM     22  H   UNL     1      -9.639  -1.042  21.663  0.00  0.00    +0.000 HD
ATOM     23  H   UNL     1      -8.137  -2.132  23.667  0.00  0.00    +0.000 HD
ATOM     24  H   UNL     1      -7.040  -4.405  22.547  0.00  0.00    +0.000 HD
ENDBRANCH  14  17
ENDBRANCH   3  14
BRANCH   7  25
ATOM     25  N   UNL     1      -9.227  -8.343  16.564  0.00  0.00    +0.000 N 
ATOM     26  H   UNL     1      -9.420  -8.488  15.566  0.00  0.00    +0.000 HD
BRANCH  25  27
ATOM     27  C   UNL     1      -8.919  -9.527  17.260  0.00  0.00    +0.000 A 
ATOM     28  C   UNL     1      -8.539  -9.466  18.611  0.00  0.00    +0.000 A 
ATOM     29  C   UNL     1      -8.471 -10.622  19.377  0.00  0.00    +0.000 A 
ATOM     30  C   UNL     1      -8.696 -11.853  18.783  0.00  0.00    +0.000 A 
ATOM     31  C   UNL     1      -8.700 -11.949  17.391  0.00  0.00    +0.000 A 
ATOM     32  C   UNL     1      -8.459 -13.195  16.798  0.00  0.00    +0.000 A 
ATOM     33  C   UNL     1      -8.327 -13.308  15.417  0.00  0.00    +0.000 A 
ATOM     34  C   UNL     1      -8.561 -12.202  14.612  0.00  0.00    +0.000 A 
ATOM     35  C   UNL     1      -8.851 -10.962  15.191  0.00  0.00    +0.000 A 
ATOM     36  C   UNL     1      -8.849 -10.787  16.598  0.00  0.00    +0.000 A 
ATOM     37  H   UNL     1      -8.249  -8.526  19.073  0.00  0.00    +0.000 HD
ATOM     38  H   UNL     1      -8.195 -10.580  20.427  0.00  0.00    +0.000 HD
ATOM     39  H   UNL     1      -8.747 -12.745  19.401  0.00  0.00    +0.000 HD
ATOM     40  H   UNL     1      -8.267 -14.070  17.415  0.00  0.00    +0.000 HD
ATOM     41  H   UNL     1      -8.020 -14.254  14.979  0.00  0.00    +0.000 HD
ATOM     42  H   UNL     1      -8.477 -12.297  13.532  0.00  0.00    +0.000 HD
ATOM     43  H   UNL     1      -8.992 -10.129  14.508  0.00  0.00    +0.000 HD
ENDBRANCH  25  27
ENDBRANCH   7  25
TORSDOF 5
ENDMDL
MODEL 7
REMARK VINA RESULT:   -10.322      1.074      2.365
REMARK INTER + INTRA:         -13.660
REMARK INTER:                 -13.124
REMARK INTRA:                  -0.536
REMARK UNBOUND:                -0.622
REMARK  Name = 
REMARK  5 active torsions:
REMARK  status: ('A' for Active; 'I' for Inactive)
REMARK    1  A    between atoms: N_1  and  C_2
REMARK    2  A    between atoms: N_4  and  C_5
REMARK    3  A    between atoms: C_5  and  C_6
REMARK    4  A    between atoms: C_14  and  N_15
REMARK    5  A    between atoms: N_15  and  C_16
REMARK                            x       y       z     vdW  Elec       q    Type
REMARK                         _______ _______ _______ _____ _____    ______ ____
ROOT
ATOM      1  C   UNL     1     -10.570  -6.842  18.211  0.00  0.00    +0.000 A 
ATOM      2  C   UNL     1     -10.322  -5.461  18.105  0.00  0.00    +0.000 A 
ATOM      3  N   UNL     1     -11.409  -4.699  17.675  0.00  0.00    +0.000 N 
ATOM      4  N   UNL     1      -9.141  -4.920  18.397  0.00  0.00    +0.000 NA
ATOM      5  C   UNL     1      -8.194  -5.772  18.863  0.00  0.00    +0.000 A 
ATOM      6  N   UNL     1      -8.381  -7.084  19.048  0.00  0.00    +0.000 N 
ATOM      7  C   UNL     1      -9.552  -7.651  18.740  0.00  0.00    +0.000 A 
ATOM      8  H   UNL     1     -12.164  -4.738  18.364  0.00  0.00    +0.000 HD
ATOM      9  H   UNL     1      -7.240  -5.357  19.152  0.00  0.00    +0.000 HD
ATOM     10  H   UNL     1      -7.645  -7.660  19.443  0.00  0.00    +0.000 HD
ENDROOT
BRANCH   1  11
ATOM     11  N   UNL     1     -11.863  -7.370  17.942  0.00  0.00    +0.000 N 
ATOM     12  H   UNL     1     -12.377  -7.461  18.826  0.00  0.00    +0.000 HD
ATOM     13  H   UNL     1     -12.390  -6.789  17.290  0.00  0.00    +0.000 HD
ENDBRANCH   1  11
BRANCH   3  14
ATOM     14  C   UNL     1     -11.250  -3.343  17.176  0.00  0.00    +0.000 C 
ATOM     15  H   UNL     1     -10.249  -2.978  17.436  0.00  0.00    +0.000 HD
ATOM     16  H   UNL     1     -11.987  -2.664  17.621  0.00  0.00    +0.000 HD
BRANCH  14  17
ATOM     17  C   UNL     1     -11.402  -3.336  15.689  0.00  0.00    +0.000 A 
ATOM     18  C   UNL     1     -11.499  -4.324  14.729  0.00  0.00    +0.000 A 
ATOM     19  C   UNL     1     -11.754  -3.665  13.500  0.00  0.00    +0.000 A 
ATOM     20  C   UNL     1     -11.803  -2.322  13.787  0.00  0.00    +0.000 A 
ATOM     21  O   UNL     1     -11.597  -2.111  15.113  0.00  0.00    +0.000 OA
ATOM     22  H   UNL     1     -11.423  -5.390  14.894  0.00  0.00    +0.000 HD
ATOM     23  H   UNL     1     -11.899  -4.113  12.526  0.00  0.00    +0.000 HD
ATOM     24  H   UNL     1     -11.974  -1.435  13.192  0.00  0.00    +0.000 HD
ENDBRANCH  14  17
ENDBRANCH   3  14
BRANCH   7  25
ATOM     25  N   UNL     1      -9.810  -9.025  18.922  0.00  0.00    +0.000 N 
ATOM     26  H   UNL     1     -10.146  -9.176  19.880  0.00  0.00    +0.000 HD
BRANCH  25  27
ATOM     27  C   UNL     1      -9.195 -10.155  18.351  0.00  0.00    +0.000 A 
ATOM     28  C   UNL     1      -8.460 -11.037  19.161  0.00  0.00    +0.000 A 
ATOM     29  C   UNL     1      -8.059 -12.273  18.673  0.00  0.00    +0.000 A 
ATOM     30  C   UNL     1      -8.309 -12.603  17.351  0.00  0.00    +0.000 A 
ATOM     31  C   UNL     1      -8.693 -11.603  16.459  0.00  0.00    +0.000 A 
ATOM     32  C   UNL     1      -8.497 -11.809  15.086  0.00  0.00    +0.000 A 
ATOM     33  C   UNL     1      -8.747 -10.788  14.175  0.00  0.00    +0.000 A 
ATOM     34  C   UNL     1      -9.313  -9.599  14.613  0.00  0.00    +0.000 A 
ATOM     35  C   UNL     1      -9.559  -9.399  15.976  0.00  0.00    +0.000 A 
ATOM     36  C   UNL     1      -9.180 -10.366  16.942  0.00  0.00    +0.000 A 
ATOM     37  H   UNL     1      -8.154 -10.756  20.166  0.00  0.00    +0.000 HD
ATOM     38  H   UNL     1      -7.505 -12.967  19.300  0.00  0.00    +0.000 HD
ATOM     39  H   UNL     1      -8.090 -13.608  16.999  0.00  0.00    +0.000 HD
ATOM     40  H   UNL     1      -8.049 -12.733  14.727  0.00  0.00    +0.000 HD
ATOM     41  H   UNL     1      -8.476 -10.918  13.130  0.00  0.00    +0.000 HD
ATOM     42  H   UNL     1      -9.525  -8.810  13.896  0.00  0.00    +0.000 HD
ATOM     43  H   UNL     1      -9.972  -8.436  16.257  0.00  0.00    +0.000 HD
ENDBRANCH  25  27
ENDBRANCH   7  25
TORSDOF 5
ENDMDL
MODEL 8
REMARK VINA RESULT:   -10.205      1.897      3.009
REMARK INTER + INTRA:         -13.512
REMARK INTER:                 -13.150
REMARK INTRA:                  -0.362
REMARK UNBOUND:                -0.622
REMARK  Name = 
REMARK  5 active torsions:
REMARK  status: ('A' for Active; 'I' for Inactive)
REMARK    1  A    between atoms: N_1  and  C_2
REMARK    2  A    between atoms: N_4  and  C_5
REMARK    3  A    between atoms: C_5  and  C_6
REMARK    4  A    between atoms: C_14  and  N_15
REMARK    5  A    between atoms: N_15  and  C_16
REMARK                            x       y       z     vdW  Elec       q    Type
REMARK                         _______ _______ _______ _____ _____    ______ ____
ROOT
ATOM      1  C   UNL     1      -9.431  -5.820  17.944  0.00  0.00    +0.000 A 
ATOM      2  C   UNL     1     -10.034  -4.562  17.762  0.00  0.00    +0.000 A 
ATOM      3  N   UNL     1      -9.261  -3.473  18.169  0.00  0.00    +0.000 N 
ATOM      4  N   UNL     1     -11.250  -4.417  17.237  0.00  0.00    +0.000 NA
ATOM      5  C   UNL     1     -11.860  -5.558  16.828  0.00  0.00    +0.000 A 
ATOM      6  N   UNL     1     -11.319  -6.778  16.912  0.00  0.00    +0.000 N 
ATOM      7  C   UNL     1     -10.111  -6.947  17.457  0.00  0.00    +0.000 A 
ATOM      8  H   UNL     1      -8.419  -3.402  17.593  0.00  0.00    +0.000 HD
ATOM      9  H   UNL     1     -12.828  -5.471  16.356  0.00  0.00    +0.000 HD
ATOM     10  H   UNL     1     -11.812  -7.588  16.547  0.00  0.00    +0.000 HD
ENDROOT
BRANCH   1  11
ATOM     11  N   UNL     1      -8.109  -5.923  18.457  0.00  0.00    +0.000 N 
ATOM     12  H   UNL     1      -8.129  -5.758  19.470  0.00  0.00    +0.000 HD
ATOM     13  H   UNL     1      -7.686  -6.830  18.259  0.00  0.00    +0.000 HD
ENDBRANCH   1  11
BRANCH   3  14
ATOM     14  C   UNL     1      -9.837  -2.156  18.385  0.00  0.00    +0.000 C 
ATOM     15  H   UNL     1     -10.791  -2.087  17.849  0.00  0.00    +0.000 HD
ATOM     16  H   UNL     1      -9.177  -1.365  18.012  0.00  0.00    +0.000 HD
BRANCH  14  17
ATOM     17  C   UNL     1     -10.082  -1.952  19.846  0.00  0.00    +0.000 A 
ATOM     18  C   UNL     1     -11.218  -1.817  20.620  0.00  0.00    +0.000 A 
ATOM     19  C   UNL     1     -10.782  -1.775  21.967  0.00  0.00    +0.000 A 
ATOM     20  C   UNL     1      -9.413  -1.893  21.933  0.00  0.00    +0.000 A 
ATOM     21  O   UNL     1      -8.978  -2.007  20.650  0.00  0.00    +0.000 OA
ATOM     22  H   UNL     1     -12.238  -1.780  20.263  0.00  0.00    +0.000 HD
ATOM     23  H   UNL     1     -11.390  -1.684  22.858  0.00  0.00    +0.000 HD
ATOM     24  H   UNL     1      -8.644  -1.920  22.694  0.00  0.00    +0.000 HD
ENDBRANCH  14  17
ENDBRANCH   3  14
BRANCH   7  25
ATOM     25  N   UNL     1      -9.487  -8.207  17.565  0.00  0.00    +0.000 N 
ATOM     26  H   UNL     1      -8.683  -8.128  18.198  0.00  0.00    +0.000 HD
BRANCH  25  27
ATOM     27  C   UNL     1      -9.371  -9.254  16.630  0.00  0.00    +0.000 A 
ATOM     28  C   UNL     1      -9.841  -9.076  15.318  0.00  0.00    +0.000 A 
ATOM     29  C   UNL     1      -9.519  -9.990  14.325  0.00  0.00    +0.000 A 
ATOM     30  C   UNL     1      -8.803 -11.131  14.647  0.00  0.00    +0.000 A 
ATOM     31  C   UNL     1      -8.663 -11.493  15.987  0.00  0.00    +0.000 A 
ATOM     32  C   UNL     1      -8.370 -12.827  16.301  0.00  0.00    +0.000 A 
ATOM     33  C   UNL     1      -8.350 -13.255  17.624  0.00  0.00    +0.000 A 
ATOM     34  C   UNL     1      -8.497 -12.329  18.648  0.00  0.00    +0.000 A 
ATOM     35  C   UNL     1      -8.741 -10.985  18.348  0.00  0.00    +0.000 A 
ATOM     36  C   UNL     1      -8.910 -10.548  17.010  0.00  0.00    +0.000 A 
ATOM     37  H   UNL     1     -10.499  -8.249  15.062  0.00  0.00    +0.000 HD
ATOM     38  H   UNL     1      -9.865  -9.850  13.304  0.00  0.00    +0.000 HD
ATOM     39  H   UNL     1      -8.461 -11.791  13.855  0.00  0.00    +0.000 HD
ATOM     40  H   UNL     1      -8.259 -13.566  15.510  0.00  0.00    +0.000 HD
ATOM     41  H   UNL     1      -8.243 -14.313  17.849  0.00  0.00    +0.000 HD
ATOM     42  H   UNL     1      -8.461 -12.663  19.682  0.00  0.00    +0.000 HD
ATOM     43  H   UNL     1      -8.879 -10.317  19.193  0.00  0.00    +0.000 HD
ENDBRANCH  25  27
ENDBRANCH   7  25
TORSDOF 5
ENDMDL
MODEL 9
REMARK VINA RESULT:   -10.011      2.407      3.559
REMARK INTER + INTRA:         -13.266
REMARK INTER:                 -12.787
REMARK INTRA:                  -0.479
REMARK UNBOUND:                -0.622
REMARK  Name = 
REMARK  5 active torsions:
REMARK  status: ('A' for Active; 'I' for Inactive)
REMARK    1  A    between atoms: N_1  and  C_2
REMARK    2  A    between atoms: N_4  and  C_5
REMARK    3  A    between atoms: C_5  and  C_6
REMARK    4  A    between atoms: C_14  and  N_15
REMARK    5  A    between atoms: N_15  and  C_16
REMARK                            x       y       z     vdW  Elec       q    Type
REMARK                         _______ _______ _______ _____ _____    ______ ____
ROOT
ATOM      1  C   UNL     1     -10.151  -5.339  15.157  0.00  0.00    +0.000 A 
ATOM      2  C   UNL     1     -10.871  -4.134  15.256  0.00  0.00    +0.000 A 
ATOM      3  N   UNL     1     -10.545  -3.173  14.298  0.00  0.00    +0.000 N 
ATOM      4  N   UNL     1     -11.798  -3.927  16.189  0.00  0.00    +0.000 NA
ATOM      5  C   UNL     1     -12.056  -4.972  17.015  0.00  0.00    +0.000 A 
ATOM      6  N   UNL     1     -11.455  -6.165  16.936  0.00  0.00    +0.000 N 
ATOM      7  C   UNL     1     -10.506  -6.386  16.022  0.00  0.00    +0.000 A 
ATOM      8  H   UNL     1     -10.793  -3.506  13.364  0.00  0.00    +0.000 HD
ATOM      9  H   UNL     1     -12.835  -4.852  17.753  0.00  0.00    +0.000 HD
ATOM     10  H   UNL     1     -11.726  -6.921  17.557  0.00  0.00    +0.000 HD
ENDROOT
BRANCH   1  11
ATOM     11  N   UNL     1      -9.210  -5.538  14.110  0.00  0.00    +0.000 N 
ATOM     12  H   UNL     1      -9.540  -6.297  13.502  0.00  0.00    +0.000 HD
ATOM     13  H   UNL     1      -9.058  -4.692  13.560  0.00  0.00    +0.000 HD
ENDBRANCH   1  11
BRANCH   3  14
ATOM     14  C   UNL     1     -10.914  -1.775  14.452  0.00  0.00    +0.000 C 
ATOM     15  H   UNL     1     -10.040  -1.146  14.245  0.00  0.00    +0.000 HD
ATOM     16  H   UNL     1     -11.255  -1.562  15.471  0.00  0.00    +0.000 HD
BRANCH  14  17
ATOM     17  C   UNL     1     -12.001  -1.436  13.483  0.00  0.00    +0.000 A 
ATOM     18  C   UNL     1     -12.567  -2.089  12.407  0.00  0.00    +0.000 A 
ATOM     19  C   UNL     1     -13.650  -1.284  11.973  0.00  0.00    +0.000 A 
ATOM     20  C   UNL     1     -13.680  -0.196  12.812  0.00  0.00    +0.000 A 
ATOM     21  O   UNL     1     -12.688  -0.281  13.736  0.00  0.00    +0.000 OA
ATOM     22  H   UNL     1     -12.259  -3.043  11.999  0.00  0.00    +0.000 HD
ATOM     23  H   UNL     1     -14.334  -1.478  11.158  0.00  0.00    +0.000 HD
ATOM     24  H   UNL     1     -14.317   0.676  12.885  0.00  0.00    +0.000 HD
ENDBRANCH  14  17
ENDBRANCH   3  14
BRANCH   7  25
ATOM     25  N   UNL     1      -9.845  -7.624  15.886  0.00  0.00    +0.000 N 
ATOM     26  H   UNL     1     -10.167  -8.081  15.025  0.00  0.00    +0.000 HD
BRANCH  25  27
ATOM     27  C   UNL     1      -9.375  -8.522  16.864  0.00  0.00    +0.000 A 
ATOM     28  C   UNL     1      -8.924  -8.037  18.102  0.00  0.00    +0.000 A 
ATOM     29  C   UNL     1      -8.692  -8.908  19.158  0.00  0.00    +0.000 A 
ATOM     30  C   UNL     1      -8.823 -10.273  18.963  0.00  0.00    +0.000 A 
ATOM     31  C   UNL     1      -8.900 -10.773  17.663  0.00  0.00    +0.000 A 
ATOM     32  C   UNL     1      -8.566 -12.115  17.433  0.00  0.00    +0.000 A 
ATOM     33  C   UNL     1      -8.506 -12.616  16.137  0.00  0.00    +0.000 A 
ATOM     34  C   UNL     1      -8.900 -11.819  15.072  0.00  0.00    +0.000 A 
ATOM     35  C   UNL     1      -9.282 -10.491  15.294  0.00  0.00    +0.000 A 
ATOM     36  C   UNL     1      -9.214  -9.911  16.587  0.00  0.00    +0.000 A 
ATOM     37  H   UNL     1      -8.706  -6.982  18.248  0.00  0.00    +0.000 HD
ATOM     38  H   UNL     1      -8.360  -8.538  20.124  0.00  0.00    +0.000 HD
ATOM     39  H   UNL     1      -8.745 -10.946  19.813  0.00  0.00    +0.000 HD
ATOM     40  H   UNL     1      -8.249 -12.751  18.256  0.00  0.00    +0.000 HD
ATOM     41  H   UNL     1      -8.129 -13.621  15.963  0.00  0.00    +0.000 HD
ATOM     42  H   UNL     1      -8.871 -12.219  14.062  0.00  0.00    +0.000 HD
ATOM     43  H   UNL     1      -9.548  -9.910  14.416  0.00  0.00    +0.000 HD
ENDBRANCH  25  27
ENDBRANCH   7  25
TORSDOF 5
ENDMDL
