REMARK  Name = 
REMARK  5 active torsions:
REMARK  status: ('A' for Active; 'I' for Inactive)
REMARK    1  A    between atoms: C_1  and  C_2
REMARK    2  A    between atoms: C_6  and  N_7
REMARK    3  A    between atoms: N_7  and  C_8
REMARK    4  A    between atoms: N_13  and  C_14
REMARK    5  A    between atoms: C_20  and  N_21
REMARK                            x       y       z     vdW  Elec       q    Type
REMARK                         _______ _______ _______ _____ _____    ______ ____
ROOT
ATOM      1  C   UNL     1      -1.438   0.709  -1.027  0.00  0.00    +0.000 A 
ATOM      2  N   UNL     1      -0.756   0.069  -2.008  0.00  0.00    +0.000 NA
ATOM      3  C   UNL     1       0.576   0.253  -1.993  0.00  0.00    +0.000 A 
ATOM      4  N   UNL     1       1.275   0.875  -1.042  0.00  0.00    +0.000 NA
ATOM      5  C   UNL     1       0.581   1.426  -0.035  0.00  0.00    +0.000 A 
ATOM      6  N   UNL     1       1.258   1.984   1.074  0.00  0.00    +0.000 N 
ATOM      7  C   UNL     1      -0.816   1.407   0.008  0.00  0.00    +0.000 A 
ATOM      8  H   UNL     1       1.146  -0.153  -2.823  0.00  0.00    +0.000 HD
ATOM      9  H   UNL     1       1.266   2.996   0.955  0.00  0.00    +0.000 HD
ENDROOT
BRANCH   6  10
ATOM     10  C   UNL     1       2.595   1.422   1.333  0.00  0.00    +0.000 C 
ATOM     11  C   UNL     1       2.455  -0.042   1.802  0.00  0.00    +0.000 C 
ATOM     12  C   UNL     1       3.776  -0.640   2.269  0.00  0.00    +0.000 C 
ATOM     13  C   UNL     1       4.414   0.214   3.357  0.00  0.00    +0.000 C 
ATOM     14  C   UNL     1       4.596   1.653   2.888  0.00  0.00    +0.000 C 
ATOM     15  C   UNL     1       3.274   2.265   2.425  0.00  0.00    +0.000 C 
ATOM     16  H   UNL     1       3.222   1.472   0.432  0.00  0.00    +0.000 HD
ATOM     17  H   UNL     1       2.057  -0.672   0.998  0.00  0.00    +0.000 HD
ATOM     18  H   UNL     1       1.725  -0.098   2.621  0.00  0.00    +0.000 HD
ATOM     19  H   UNL     1       4.462  -0.724   1.416  0.00  0.00    +0.000 HD
ATOM     20  H   UNL     1       3.608  -1.654   2.645  0.00  0.00    +0.000 HD
ATOM     21  H   UNL     1       5.383  -0.212   3.640  0.00  0.00    +0.000 HD
ATOM     22  H   UNL     1       3.782   0.195   4.254  0.00  0.00    +0.000 HD
ATOM     23  H   UNL     1       5.320   1.680   2.065  0.00  0.00    +0.000 HD
ATOM     24  H   UNL     1       5.014   2.254   3.703  0.00  0.00    +0.000 HD
ATOM     25  H   UNL     1       3.456   3.280   2.050  0.00  0.00    +0.000 HD
ATOM     26  H   UNL     1       2.604   2.370   3.288  0.00  0.00    +0.000 HD
ENDBRANCH   6  10
BRANCH   7  27
ATOM     27  N   UNL     1      -1.541   2.112   0.999  0.00  0.00    +0.000 N 
ATOM     28  H   UNL     1      -0.903   2.335   1.771  0.00  0.00    +0.000 HD
ATOM     29  H   UNL     1      -2.347   1.599   1.343  0.00  0.00    +0.000 HD
ENDBRANCH   7  27
BRANCH   1  30
ATOM     30  N   UNL     1      -2.840   0.524  -0.965  0.00  0.00    +0.000 N 
ATOM     31  H   UNL     1      -3.308   1.420  -0.832  0.00  0.00    +0.000 HD
BRANCH  30  36
ATOM     32  C   UNL     1      -3.429  -2.477  -2.891  0.00  0.00    +0.000 A 
ATOM     33  C   UNL     1      -4.810  -2.642  -2.798  0.00  0.00    +0.000 A 
ATOM     34  C   UNL     1      -5.566  -1.689  -2.119  0.00  0.00    +0.000 A 
ATOM     35  C   UNL     1      -4.933  -0.594  -1.533  0.00  0.00    +0.000 A 
ATOM     36  C   UNL     1      -3.552  -0.451  -1.658  0.00  0.00    +0.000 A 
ATOM     37  N   UNL     1      -2.872  -1.394  -2.327  0.00  0.00    +0.000 N 
ATOM     38  H   UNL     1      -5.300  -3.510  -3.236  0.00  0.00    +0.000 HD
ATOM     39  H   UNL     1      -6.645  -1.811  -2.027  0.00  0.00    +0.000 HD
ATOM     40  H   UNL     1      -5.519   0.125  -0.964  0.00  0.00    +0.000 HD
ATOM     41  H   UNL     1      -1.859  -1.242  -2.376  0.00  0.00    +0.000 HD
BRANCH  32  42
ATOM     42  C   UNL     1      -2.528  -3.468  -3.546  0.00  0.00    +0.000 C 
ATOM     43  H   UNL     1      -3.095  -4.286  -4.005  0.00  0.00    +0.000 HD
ATOM     44  H   UNL     1      -1.848  -3.899  -2.805  0.00  0.00    +0.000 HD
ATOM     45  H   UNL     1      -1.939  -2.982  -4.327  0.00  0.00    +0.000 HD
ENDBRANCH  32  42
ENDBRANCH  30  36
ENDBRANCH   1  30
TORSDOF 5
