MODEL 1
REMARK VINA RESULT:   -10.979      0.000      0.000
REMARK INTER + INTRA:         -14.071
REMARK INTER:                 -13.546
REMARK INTRA:                  -0.526
REMARK UNBOUND:                -0.526
REMARK  Name = 
REMARK  4 active torsions:
REMARK  status: ('A' for Active; 'I' for Inactive)
REMARK    1  A    between atoms: C_2  and  C_4
REMARK    2  A    between atoms: N_7  and  C_8
REMARK    3  A    between atoms: C_11  and  N_12
REMARK    4  A    between atoms: C_13  and  C_15
REMARK                            x       y       z     vdW  Elec       q    Type
REMARK                         _______ _______ _______ _____ _____    ______ ____
ROOT
ATOM      1  C   UNL     1      -8.496  -3.615  20.309  0.00  0.00    +0.000 A 
ATOM      2  C   UNL     1      -9.228  -3.683  19.132  0.00  0.00    +0.000 A 
ATOM      3  C   UNL     1      -9.233  -4.870  18.382  0.00  0.00    +0.000 A 
ATOM      4  C   UNL     1      -8.464  -5.981  18.756  0.00  0.00    +0.000 A 
ATOM      5  C   UNL     1      -7.685  -5.883  19.912  0.00  0.00    +0.000 A 
ATOM      6  C   UNL     1      -7.715  -4.717  20.694  0.00  0.00    +0.000 A 
ATOM      7  H   UNL     1      -9.841  -2.863  18.774  0.00  0.00    +0.000 HD
ATOM      8  H   UNL     1      -9.851  -4.889  17.491  0.00  0.00    +0.000 HD
ATOM      9  H   UNL     1      -7.062  -6.716  20.237  0.00  0.00    +0.000 HD
ATOM     10  H   UNL     1      -7.104  -4.688  21.596  0.00  0.00    +0.000 HD
ENDROOT
BRANCH   1  14
ATOM     11  C   UNL     1      -9.797  -1.498  23.673  0.00  0.00    +0.000 C 
ATOM     12  C   UNL     1      -8.692  -2.544  23.746  0.00  0.00    +0.000 C 
ATOM     13  C   UNL     1      -7.786  -2.563  22.515  0.00  0.00    +0.000 C 
ATOM     14  N   UNL     1      -8.509  -2.422  21.194  0.00  0.00    +0.000 NA
ATOM     15  C   UNL     1      -9.828  -1.696  21.134  0.00  0.00    +0.000 C 
ATOM     16  C   UNL     1     -10.628  -1.775  22.424  0.00  0.00    +0.000 C 
ATOM     17  H   UNL     1     -10.449  -1.599  24.552  0.00  0.00    +0.000 HD
ATOM     18  H   UNL     1      -9.147  -3.534  23.879  0.00  0.00    +0.000 HD
ATOM     19  H   UNL     1      -8.070  -2.378  24.635  0.00  0.00    +0.000 HD
ATOM     20  H   UNL     1      -7.173  -3.472  22.509  0.00  0.00    +0.000 HD
ATOM     21  H   UNL     1      -7.084  -1.723  22.566  0.00  0.00    +0.000 HD
ATOM     22  H   UNL     1      -7.874  -1.784  20.692  0.00  0.00    +0.000 HD
ATOM     23  H   UNL     1     -10.427  -2.090  20.306  0.00  0.00    +0.000 HD
ATOM     24  H   UNL     1      -9.590  -0.664  20.860  0.00  0.00    +0.000 HD
ATOM     25  H   UNL     1     -11.076  -2.774  22.505  0.00  0.00    +0.000 HD
ATOM     26  H   UNL     1     -11.462  -1.065  22.365  0.00  0.00    +0.000 HD
BRANCH  11  28
ATOM     27  N   UNL     1     -10.099   0.910  23.329  0.00  0.00    +0.000 N 
ATOM     28  C   UNL     1      -9.237  -0.079  23.688  0.00  0.00    +0.000 C 
ATOM     29  O   UNL     1      -8.111   0.192  24.077  0.00  0.00    +0.000 OA
ATOM     30  H   UNL     1      -9.698   1.841  23.259  0.00  0.00    +0.000 HD
ATOM     31  H   UNL     1     -10.895   0.737  22.728  0.00  0.00    +0.000 HD
ENDBRANCH  11  28
ENDBRANCH   1  14
BRANCH   4  32
ATOM     32  N   UNL     1      -8.432  -7.196  18.027  0.00  0.00    +0.000 N 
ATOM     33  C   UNL     1      -9.520  -8.011  17.735  0.00  0.00    +0.000 C 
ATOM     34  O   UNL     1     -10.679  -7.789  18.087  0.00  0.00    +0.000 OA
ATOM     35  H   UNL     1      -7.526  -7.479  17.674  0.00  0.00    +0.000 HD
BRANCH  33  36
ATOM     36  C   UNL     1      -9.268  -9.243  16.921  0.00  0.00    +0.000 A 
ATOM     37  C   UNL     1      -9.195  -9.225  15.524  0.00  0.00    +0.000 A 
ATOM     38  C   UNL     1      -9.053 -10.417  14.796  0.00  0.00    +0.000 A 
ATOM     39  C   UNL     1      -8.877 -11.632  15.483  0.00  0.00    +0.000 A 
ATOM     40  C   UNL     1      -8.731 -12.987  15.080  0.00  0.00    +0.000 A 
ATOM     41  C   UNL     1      -8.342 -13.703  16.189  0.00  0.00    +0.000 A 
ATOM     42  N   UNL     1      -8.417 -12.870  17.274  0.00  0.00    +0.000 N 
ATOM     43  C   UNL     1      -8.802 -11.609  16.873  0.00  0.00    +0.000 A 
ATOM     44  C   UNL     1      -9.052 -10.449  17.618  0.00  0.00    +0.000 A 
ATOM     45  H   UNL     1      -9.217  -8.298  14.962  0.00  0.00    +0.000 HD
ATOM     46  H   UNL     1      -9.023 -10.401  13.710  0.00  0.00    +0.000 HD
ATOM     47  H   UNL     1      -8.824 -13.380  14.077  0.00  0.00    +0.000 HD
ATOM     48  H   UNL     1      -8.015 -14.730  16.296  0.00  0.00    +0.000 HD
ATOM     49  H   UNL     1      -8.168 -13.124  18.220  0.00  0.00    +0.000 HD
ATOM     50  H   UNL     1      -9.062 -10.479  18.705  0.00  0.00    +0.000 HD
ENDBRANCH  33  36
ENDBRANCH   4  32
TORSDOF 4
ENDMDL
MODEL 2
REMARK VINA RESULT:   -10.919      0.815      1.233
REMARK INTER + INTRA:         -13.998
REMARK INTER:                 -13.514
REMARK INTRA:                  -0.484
REMARK UNBOUND:                -0.526
REMARK  Name = 
REMARK  4 active torsions:
REMARK  status: ('A' for Active; 'I' for Inactive)
REMARK    1  A    between atoms: C_2  and  C_4
REMARK    2  A    between atoms: N_7  and  C_8
REMARK    3  A    between atoms: C_11  and  N_12
REMARK    4  A    between atoms: C_13  and  C_15
REMARK                            x       y       z     vdW  Elec       q    Type
REMARK                         _______ _______ _______ _____ _____    ______ ____
ROOT
ATOM      1  C   UNL     1      -8.562  -3.259  20.601  0.00  0.00    +0.000 A 
ATOM      2  C   UNL     1      -7.782  -4.326  21.025  0.00  0.00    +0.000 A 
ATOM      3  C   UNL     1      -7.714  -5.491  20.246  0.00  0.00    +0.000 A 
ATOM      4  C   UNL     1      -8.464  -5.637  19.070  0.00  0.00    +0.000 A 
ATOM      5  C   UNL     1      -9.289  -4.580  18.682  0.00  0.00    +0.000 A 
ATOM      6  C   UNL     1      -9.325  -3.391  19.429  0.00  0.00    +0.000 A 
ATOM      7  H   UNL     1      -7.180  -4.291  21.926  0.00  0.00    +0.000 HD
ATOM      8  H   UNL     1      -7.060  -6.283  20.597  0.00  0.00    +0.000 HD
ATOM      9  H   UNL     1      -9.900  -4.650  17.781  0.00  0.00    +0.000 HD
ATOM     10  H   UNL     1      -9.971  -2.586  19.082  0.00  0.00    +0.000 HD
ENDROOT
BRANCH   1  14
ATOM     11  C   UNL     1      -9.682  -0.871  23.846  0.00  0.00    +0.000 C 
ATOM     12  C   UNL     1      -8.446  -1.762  23.878  0.00  0.00    +0.000 C 
ATOM     13  C   UNL     1      -7.716  -1.842  22.538  0.00  0.00    +0.000 C 
ATOM     14  N   UNL     1      -8.618  -1.967  21.331  0.00  0.00    +0.000 NA
ATOM     15  C   UNL     1     -10.019  -1.413  21.381  0.00  0.00    +0.000 C 
ATOM     16  C   UNL     1     -10.625  -1.409  22.775  0.00  0.00    +0.000 C 
ATOM     17  H   UNL     1     -10.193  -0.928  24.817  0.00  0.00    +0.000 HD
ATOM     18  H   UNL     1      -8.743  -2.771  24.192  0.00  0.00    +0.000 HD
ATOM     19  H   UNL     1      -7.741  -1.406  24.640  0.00  0.00    +0.000 HD
ATOM     20  H   UNL     1      -6.992  -2.666  22.548  0.00  0.00    +0.000 HD
ATOM     21  H   UNL     1      -7.132  -0.927  22.386  0.00  0.00    +0.000 HD
ATOM     22  H   UNL     1      -8.146  -1.332  20.669  0.00  0.00    +0.000 HD
ATOM     23  H   UNL     1     -10.663  -1.983  20.702  0.00  0.00    +0.000 HD
ATOM     24  H   UNL     1      -9.960  -0.407  20.955  0.00  0.00    +0.000 HD
ATOM     25  H   UNL     1     -10.921  -2.433  23.038  0.00  0.00    +0.000 HD
ATOM     26  H   UNL     1     -11.547  -0.815  22.756  0.00  0.00    +0.000 HD
BRANCH  11  28
ATOM     27  N   UNL     1      -8.103   0.991  24.068  0.00  0.00    +0.000 N 
ATOM     28  C   UNL     1      -9.320   0.593  23.611  0.00  0.00    +0.000 C 
ATOM     29  O   UNL     1     -10.025   1.361  22.976  0.00  0.00    +0.000 OA
ATOM     30  H   UNL     1      -7.903   1.983  23.984  0.00  0.00    +0.000 HD
ATOM     31  H   UNL     1      -7.636   0.521  24.834  0.00  0.00    +0.000 HD
ENDBRANCH  11  28
ENDBRANCH   1  14
BRANCH   4  32
ATOM     32  N   UNL     1      -8.431  -6.797  18.256  0.00  0.00    +0.000 N 
ATOM     33  C   UNL     1      -9.435  -7.752  18.141  0.00  0.00    +0.000 C 
ATOM     34  O   UNL     1     -10.504  -7.726  18.752  0.00  0.00    +0.000 OA
ATOM     35  H   UNL     1      -7.598  -6.922  17.694  0.00  0.00    +0.000 HD
BRANCH  33  36
ATOM     36  C   UNL     1      -9.206  -8.892  17.195  0.00  0.00    +0.000 A 
ATOM     37  C   UNL     1      -9.139  -8.722  15.809  0.00  0.00    +0.000 A 
ATOM     38  C   UNL     1      -9.019  -9.829  14.953  0.00  0.00    +0.000 A 
ATOM     39  C   UNL     1      -8.860 -11.115  15.502  0.00  0.00    +0.000 A 
ATOM     40  C   UNL     1      -8.737 -12.420  14.953  0.00  0.00    +0.000 A 
ATOM     41  C   UNL     1      -8.355 -13.259  15.975  0.00  0.00    +0.000 A 
ATOM     42  N   UNL     1      -8.412 -12.548  17.145  0.00  0.00    +0.000 N 
ATOM     43  C   UNL     1      -8.778 -11.245  16.886  0.00  0.00    +0.000 A 
ATOM     44  C   UNL     1      -9.007 -10.170  17.755  0.00  0.00    +0.000 A 
ATOM     45  H   UNL     1      -9.149  -7.739  15.351  0.00  0.00    +0.000 HD
ATOM     46  H   UNL     1      -8.994  -9.694  13.876  0.00  0.00    +0.000 HD
ATOM     47  H   UNL     1      -8.841 -12.698  13.913  0.00  0.00    +0.000 HD
ATOM     48  H   UNL     1      -8.045 -14.296  15.966  0.00  0.00    +0.000 HD
ATOM     49  H   UNL     1      -8.163 -12.908  18.056  0.00  0.00    +0.000 HD
ATOM     50  H   UNL     1      -9.012 -10.319  18.832  0.00  0.00    +0.000 HD
ENDBRANCH  33  36
ENDBRANCH   4  32
TORSDOF 4
ENDMDL
MODEL 3
REMARK VINA RESULT:   -10.738      2.325     10.623
REMARK INTER + INTRA:         -13.775
REMARK INTER:                 -13.214
REMARK INTRA:                  -0.561
REMARK UNBOUND:                -0.526
REMARK  Name = 
REMARK  4 active torsions:
REMARK  status: ('A' for Active; 'I' for Inactive)
REMARK    1  A    between atoms: C_2  and  C_4
REMARK    2  A    between atoms: N_7  and  C_8
REMARK    3  A    between atoms: C_11  and  N_12
REMARK    4  A    between atoms: C_13  and  C_15
REMARK                            x       y       z     vdW  Elec       q    Type
REMARK                         _______ _______ _______ _____ _____    ______ ____
ROOT
ATOM      1  C   UNL     1      -9.206 -10.197  18.085  0.00  0.00    +0.000 A 
ATOM      2  C   UNL     1      -9.540  -8.999  17.469  0.00  0.00    +0.000 A 
ATOM      3  C   UNL     1      -9.278  -7.784  18.120  0.00  0.00    +0.000 A 
ATOM      4  C   UNL     1      -8.740  -7.742  19.414  0.00  0.00    +0.000 A 
ATOM      5  C   UNL     1      -8.461  -8.955  20.050  0.00  0.00    +0.000 A 
ATOM      6  C   UNL     1      -8.674 -10.173  19.384  0.00  0.00    +0.000 A 
ATOM      7  H   UNL     1      -9.966  -8.951  16.472  0.00  0.00    +0.000 HD
ATOM      8  H   UNL     1      -9.519  -6.873  17.583  0.00  0.00    +0.000 HD
ATOM      9  H   UNL     1      -8.053  -8.974  21.060  0.00  0.00    +0.000 HD
ATOM     10  H   UNL     1      -8.428 -11.095  19.911  0.00  0.00    +0.000 HD
ENDROOT
BRANCH   1  14
ATOM     11  C   UNL     1      -7.786 -13.491  15.935  0.00  0.00    +0.000 C 
ATOM     12  C   UNL     1      -7.606 -13.363  17.442  0.00  0.00    +0.000 C 
ATOM     13  C   UNL     1      -8.794 -12.707  18.146  0.00  0.00    +0.000 C 
ATOM     14  N   UNL     1      -9.380 -11.515  17.423  0.00  0.00    +0.000 NA
ATOM     15  C   UNL     1      -9.254 -11.410  15.925  0.00  0.00    +0.000 C 
ATOM     16  C   UNL     1      -8.017 -12.094  15.366  0.00  0.00    +0.000 C 
ATOM     17  H   UNL     1      -6.864 -13.895  15.494  0.00  0.00    +0.000 HD
ATOM     18  H   UNL     1      -6.697 -12.781  17.644  0.00  0.00    +0.000 HD
ATOM     19  H   UNL     1      -7.437 -14.351  17.889  0.00  0.00    +0.000 HD
ATOM     20  H   UNL     1      -8.521 -12.425  19.169  0.00  0.00    +0.000 HD
ATOM     21  H   UNL     1      -9.608 -13.434  18.239  0.00  0.00    +0.000 HD
ATOM     22  H   UNL     1     -10.389 -11.683  17.556  0.00  0.00    +0.000 HD
ATOM     23  H   UNL     1      -9.255 -10.355  15.630  0.00  0.00    +0.000 HD
ATOM     24  H   UNL     1     -10.177 -11.830  15.516  0.00  0.00    +0.000 HD
ATOM     25  H   UNL     1      -7.139 -11.470  15.577  0.00  0.00    +0.000 HD
ATOM     26  H   UNL     1      -8.107 -12.145  14.274  0.00  0.00    +0.000 HD
BRANCH  11  28
ATOM     27  N   UNL     1      -9.188 -15.423  16.489  0.00  0.00    +0.000 N 
ATOM     28  C   UNL     1      -8.917 -14.451  15.578  0.00  0.00    +0.000 C 
ATOM     29  O   UNL     1      -9.611 -14.325  14.580  0.00  0.00    +0.000 OA
ATOM     30  H   UNL     1      -9.884 -16.109  16.208  0.00  0.00    +0.000 HD
ATOM     31  H   UNL     1      -8.491 -15.758  17.141  0.00  0.00    +0.000 HD
ENDBRANCH  11  28
ENDBRANCH   1  14
BRANCH   4  32
ATOM     32  N   UNL     1      -8.466  -6.540  20.113  0.00  0.00    +0.000 N 
ATOM     33  C   UNL     1      -7.359  -5.718  19.935  0.00  0.00    +0.000 C 
ATOM     34  O   UNL     1      -6.443  -5.933  19.140  0.00  0.00    +0.000 OA
ATOM     35  H   UNL     1      -9.159  -6.253  20.793  0.00  0.00    +0.000 HD
BRANCH  33  36
ATOM     36  C   UNL     1      -7.278  -4.471  20.762  0.00  0.00    +0.000 A 
ATOM     37  C   UNL     1      -6.091  -4.035  21.361  0.00  0.00    +0.000 A 
ATOM     38  C   UNL     1      -6.081  -2.914  22.206  0.00  0.00    +0.000 A 
ATOM     39  C   UNL     1      -7.257  -2.159  22.370  0.00  0.00    +0.000 A 
ATOM     40  C   UNL     1      -7.603  -1.016  23.140  0.00  0.00    +0.000 A 
ATOM     41  C   UNL     1      -8.831  -0.581  22.697  0.00  0.00    +0.000 A 
ATOM     42  N   UNL     1      -9.314  -1.513  21.817  0.00  0.00    +0.000 N 
ATOM     43  C   UNL     1      -8.390  -2.522  21.646  0.00  0.00    +0.000 A 
ATOM     44  C   UNL     1      -8.451  -3.698  20.887  0.00  0.00    +0.000 A 
ATOM     45  H   UNL     1      -5.142  -4.527  21.174  0.00  0.00    +0.000 HD
ATOM     46  H   UNL     1      -5.163  -2.596  22.690  0.00  0.00    +0.000 HD
ATOM     47  H   UNL     1      -6.988  -0.523  23.881  0.00  0.00    +0.000 HD
ATOM     48  H   UNL     1      -9.397   0.312  22.932  0.00  0.00    +0.000 HD
ATOM     49  H   UNL     1     -10.190  -1.442  21.318  0.00  0.00    +0.000 HD
ATOM     50  H   UNL     1      -9.374  -3.994  20.395  0.00  0.00    +0.000 HD
ENDBRANCH  33  36
ENDBRANCH   4  32
TORSDOF 4
ENDMDL
MODEL 4
REMARK VINA RESULT:   -10.505      1.678      2.360
REMARK INTER + INTRA:         -13.488
REMARK INTER:                 -12.994
REMARK INTRA:                  -0.494
REMARK UNBOUND:                -0.526
REMARK  Name = 
REMARK  4 active torsions:
REMARK  status: ('A' for Active; 'I' for Inactive)
REMARK    1  A    between atoms: C_2  and  C_4
REMARK    2  A    between atoms: N_7  and  C_8
REMARK    3  A    between atoms: C_11  and  N_12
REMARK    4  A    between atoms: C_13  and  C_15
REMARK                            x       y       z     vdW  Elec       q    Type
REMARK                         _______ _______ _______ _____ _____    ______ ____
ROOT
ATOM      1  C   UNL     1      -8.327  -2.509  21.071  0.00  0.00    +0.000 A 
ATOM      2  C   UNL     1      -7.505  -3.578  21.399  0.00  0.00    +0.000 A 
ATOM      3  C   UNL     1      -7.570  -4.763  20.649  0.00  0.00    +0.000 A 
ATOM      4  C   UNL     1      -8.492  -4.925  19.605  0.00  0.00    +0.000 A 
ATOM      5  C   UNL     1      -9.355  -3.864  19.320  0.00  0.00    +0.000 A 
ATOM      6  C   UNL     1      -9.262  -2.657  20.033  0.00  0.00    +0.000 A 
ATOM      7  H   UNL     1      -6.772  -3.531  22.197  0.00  0.00    +0.000 HD
ATOM      8  H   UNL     1      -6.880  -5.556  20.917  0.00  0.00    +0.000 HD
ATOM      9  H   UNL     1     -10.097  -3.946  18.525  0.00  0.00    +0.000 HD
ATOM     10  H   UNL     1      -9.943  -1.850  19.768  0.00  0.00    +0.000 HD
ENDROOT
BRANCH   1  14
ATOM     11  C   UNL     1      -9.528   0.200  24.023  0.00  0.00    +0.000 C 
ATOM     12  C   UNL     1      -8.527  -0.916  24.298  0.00  0.00    +0.000 C 
ATOM     13  C   UNL     1      -7.590  -1.201  23.125  0.00  0.00    +0.000 C 
ATOM     14  N   UNL     1      -8.256  -1.199  21.768  0.00  0.00    +0.000 NA
ATOM     15  C   UNL     1      -9.499  -0.377  21.542  0.00  0.00    +0.000 C 
ATOM     16  C   UNL     1     -10.342  -0.189  22.793  0.00  0.00    +0.000 C 
ATOM     17  H   UNL     1     -10.213   0.290  24.877  0.00  0.00    +0.000 HD
ATOM     18  H   UNL     1      -9.077  -1.831  24.556  0.00  0.00    +0.000 HD
ATOM     19  H   UNL     1      -7.920  -0.672  25.180  0.00  0.00    +0.000 HD
ATOM     20  H   UNL     1      -7.065  -2.150  23.281  0.00  0.00    +0.000 HD
ATOM     21  H   UNL     1      -6.815  -0.428  23.083  0.00  0.00    +0.000 HD
ATOM     22  H   UNL     1      -7.549  -0.702  21.205  0.00  0.00    +0.000 HD
ATOM     23  H   UNL     1     -10.106  -0.839  20.755  0.00  0.00    +0.000 HD
ATOM     24  H   UNL     1      -9.158   0.576  21.129  0.00  0.00    +0.000 HD
ATOM     25  H   UNL     1     -10.884  -1.121  23.001  0.00  0.00    +0.000 HD
ATOM     26  H   UNL     1     -11.104   0.574  22.591  0.00  0.00    +0.000 HD
BRANCH  11  28
ATOM     27  N   UNL     1      -9.498   2.469  23.096  0.00  0.00    +0.000 N 
ATOM     28  C   UNL     1      -8.838   1.550  23.851  0.00  0.00    +0.000 C 
ATOM     29  O   UNL     1      -7.798   1.846  24.418  0.00  0.00    +0.000 OA
ATOM     30  H   UNL     1      -8.996   3.334  22.917  0.00  0.00    +0.000 HD
ATOM     31  H   UNL     1     -10.164   2.200  22.383  0.00  0.00    +0.000 HD
ENDBRANCH  11  28
ENDBRANCH   1  14
BRANCH   4  32
ATOM     32  N   UNL     1      -8.598  -6.104  18.826  0.00  0.00    +0.000 N 
ATOM     33  C   UNL     1      -8.781  -7.396  19.307  0.00  0.00    +0.000 C 
ATOM     34  O   UNL     1      -8.865  -7.698  20.497  0.00  0.00    +0.000 OA
ATOM     35  H   UNL     1      -8.553  -5.978  17.822  0.00  0.00    +0.000 HD
BRANCH  33  36
ATOM     36  C   UNL     1      -8.897  -8.502  18.302  0.00  0.00    +0.000 A 
ATOM     37  C   UNL     1      -8.851  -9.854  18.657  0.00  0.00    +0.000 A 
ATOM     38  C   UNL     1      -8.867 -10.856  17.674  0.00  0.00    +0.000 A 
ATOM     39  C   UNL     1      -9.036 -10.500  16.323  0.00  0.00    +0.000 A 
ATOM     40  C   UNL     1      -9.076 -11.227  15.103  0.00  0.00    +0.000 A 
ATOM     41  C   UNL     1      -9.520 -10.364  14.127  0.00  0.00    +0.000 A 
ATOM     42  N   UNL     1      -9.583  -9.109  14.674  0.00  0.00    +0.000 N 
ATOM     43  C   UNL     1      -9.232  -9.158  16.006  0.00  0.00    +0.000 A 
ATOM     44  C   UNL     1      -9.108  -8.137  16.956  0.00  0.00    +0.000 A 
ATOM     45  H   UNL     1      -8.829 -10.173  19.693  0.00  0.00    +0.000 HD
ATOM     46  H   UNL     1      -8.804 -11.904  17.953  0.00  0.00    +0.000 HD
ATOM     47  H   UNL     1      -8.876 -12.282  14.969  0.00  0.00    +0.000 HD
ATOM     48  H   UNL     1      -9.800 -10.538  13.096  0.00  0.00    +0.000 HD
ATOM     49  H   UNL     1      -9.898  -8.280  14.190  0.00  0.00    +0.000 HD
ATOM     50  H   UNL     1      -9.190  -7.093  16.663  0.00  0.00    +0.000 HD
ENDBRANCH  33  36
ENDBRANCH   4  32
TORSDOF 4
ENDMDL
MODEL 5
REMARK VINA RESULT:   -10.442      1.284      1.467
REMARK INTER + INTRA:         -13.409
REMARK INTER:                 -12.847
REMARK INTRA:                  -0.563
REMARK UNBOUND:                -0.526
REMARK  Name = 
REMARK  4 active torsions:
REMARK  status: ('A' for Active; 'I' for Inactive)
REMARK    1  A    between atoms: C_2  and  C_4
REMARK    2  A    between atoms: N_7  and  C_8
REMARK    3  A    between atoms: C_11  and  N_12
REMARK    4  A    between atoms: C_13  and  C_15
REMARK                            x       y       z     vdW  Elec       q    Type
REMARK                         _______ _______ _______ _____ _____    ______ ____
ROOT
ATOM      1  C   UNL     1      -9.993  -2.958  19.494  0.00  0.00    +0.000 A 
ATOM      2  C   UNL     1     -10.975  -3.417  18.627  0.00  0.00    +0.000 A 
ATOM      3  C   UNL     1     -10.799  -4.639  17.959  0.00  0.00    +0.000 A 
ATOM      4  C   UNL     1      -9.622  -5.389  18.094  0.00  0.00    +0.000 A 
ATOM      5  C   UNL     1      -8.616  -4.891  18.925  0.00  0.00    +0.000 A 
ATOM      6  C   UNL     1      -8.806  -3.694  19.635  0.00  0.00    +0.000 A 
ATOM      7  H   UNL     1     -11.908  -2.888  18.465  0.00  0.00    +0.000 HD
ATOM      8  H   UNL     1     -11.610  -4.976  17.323  0.00  0.00    +0.000 HD
ATOM      9  H   UNL     1      -7.679  -5.433  19.053  0.00  0.00    +0.000 HD
ATOM     10  H   UNL     1      -8.002  -3.349  20.284  0.00  0.00    +0.000 HD
ENDROOT
BRANCH   1  14
ATOM     11  C   UNL     1     -10.307  -0.885  23.113  0.00  0.00    +0.000 C 
ATOM     12  C   UNL     1      -8.965  -1.307  22.530  0.00  0.00    +0.000 C 
ATOM     13  C   UNL     1      -8.906  -1.222  21.005  0.00  0.00    +0.000 C 
ATOM     14  N   UNL     1     -10.147  -1.716  20.295  0.00  0.00    +0.000 NA
ATOM     15  C   UNL     1     -11.483  -1.661  20.991  0.00  0.00    +0.000 C 
ATOM     16  C   UNL     1     -11.387  -1.773  22.504  0.00  0.00    +0.000 C 
ATOM     17  H   UNL     1     -10.297  -1.049  24.200  0.00  0.00    +0.000 HD
ATOM     18  H   UNL     1      -8.747  -2.336  22.846  0.00  0.00    +0.000 HD
ATOM     19  H   UNL     1      -8.159  -0.689  22.945  0.00  0.00    +0.000 HD
ATOM     20  H   UNL     1      -8.025  -1.754  20.628  0.00  0.00    +0.000 HD
ATOM     21  H   UNL     1      -8.782  -0.176  20.704  0.00  0.00    +0.000 HD
ATOM     22  H   UNL     1     -10.246  -1.003  19.556  0.00  0.00    +0.000 HD
ATOM     23  H   UNL     1     -12.131  -2.455  20.604  0.00  0.00    +0.000 HD
ATOM     24  H   UNL     1     -11.947  -0.723  20.676  0.00  0.00    +0.000 HD
ATOM     25  H   UNL     1     -11.186  -2.819  22.772  0.00  0.00    +0.000 HD
ATOM     26  H   UNL     1     -12.364  -1.525  22.937  0.00  0.00    +0.000 HD
BRANCH  11  28
ATOM     27  N   UNL     1      -9.514   1.430  22.977  0.00  0.00    +0.000 N 
ATOM     28  C   UNL     1     -10.585   0.598  22.882  0.00  0.00    +0.000 C 
ATOM     29  O   UNL     1     -11.677   1.028  22.546  0.00  0.00    +0.000 OA
ATOM     30  H   UNL     1      -9.720   2.423  22.906  0.00  0.00    +0.000 HD
ATOM     31  H   UNL     1      -8.699   1.197  23.530  0.00  0.00    +0.000 HD
ENDBRANCH  11  28
ENDBRANCH   1  14
BRANCH   4  32
ATOM     32  N   UNL     1      -9.398  -6.624  17.435  0.00  0.00    +0.000 N 
ATOM     33  C   UNL     1      -9.515  -7.891  17.996  0.00  0.00    +0.000 C 
ATOM     34  O   UNL     1      -9.824  -8.116  19.166  0.00  0.00    +0.000 OA
ATOM     35  H   UNL     1      -9.145  -6.565  16.456  0.00  0.00    +0.000 HD
BRANCH  33  36
ATOM     36  C   UNL     1      -9.259  -9.071  17.108  0.00  0.00    +0.000 A 
ATOM     37  C   UNL     1      -9.183  -8.967  15.715  0.00  0.00    +0.000 A 
ATOM     38  C   UNL     1      -9.038 -10.112  14.916  0.00  0.00    +0.000 A 
ATOM     39  C   UNL     1      -8.862 -11.367  15.527  0.00  0.00    +0.000 A 
ATOM     40  C   UNL     1      -8.713 -12.695  15.043  0.00  0.00    +0.000 A 
ATOM     41  C   UNL     1      -8.325 -13.477  16.107  0.00  0.00    +0.000 A 
ATOM     42  N   UNL     1      -8.403 -12.711  17.241  0.00  0.00    +0.000 N 
ATOM     43  C   UNL     1      -8.789 -11.428  16.917  0.00  0.00    +0.000 A 
ATOM     44  C   UNL     1      -9.043 -10.317  17.731  0.00  0.00    +0.000 A 
ATOM     45  H   UNL     1      -9.207  -8.008  15.211  0.00  0.00    +0.000 HD
ATOM     46  H   UNL     1      -9.006 -10.029  13.834  0.00  0.00    +0.000 HD
ATOM     47  H   UNL     1      -8.804 -13.025  14.017  0.00  0.00    +0.000 HD
ATOM     48  H   UNL     1      -7.997 -14.508  16.151  0.00  0.00    +0.000 HD
ATOM     49  H   UNL     1      -8.156 -13.022  18.170  0.00  0.00    +0.000 HD
ATOM     50  H   UNL     1      -9.055 -10.414  18.814  0.00  0.00    +0.000 HD
ENDBRANCH  33  36
ENDBRANCH   4  32
TORSDOF 4
ENDMDL
MODEL 6
REMARK VINA RESULT:   -10.119      3.562      4.391
REMARK INTER + INTRA:         -13.010
REMARK INTER:                 -12.423
REMARK INTRA:                  -0.587
REMARK UNBOUND:                -0.526
REMARK  Name = 
REMARK  4 active torsions:
REMARK  status: ('A' for Active; 'I' for Inactive)
REMARK    1  A    between atoms: C_2  and  C_4
REMARK    2  A    between atoms: N_7  and  C_8
REMARK    3  A    between atoms: C_11  and  N_12
REMARK    4  A    between atoms: C_13  and  C_15
REMARK                            x       y       z     vdW  Elec       q    Type
REMARK                         _______ _______ _______ _____ _____    ______ ____
ROOT
ATOM      1  C   UNL     1     -10.954  -3.985  17.327  0.00  0.00    +0.000 A 
ATOM      2  C   UNL     1     -11.438  -4.745  16.272  0.00  0.00    +0.000 A 
ATOM      3  C   UNL     1     -11.153  -6.119  16.216  0.00  0.00    +0.000 A 
ATOM      4  C   UNL     1     -10.336  -6.742  17.170  0.00  0.00    +0.000 A 
ATOM      5  C   UNL     1      -9.807  -5.956  18.196  0.00  0.00    +0.000 A 
ATOM      6  C   UNL     1     -10.128  -4.592  18.287  0.00  0.00    +0.000 A 
ATOM      7  H   UNL     1     -12.070  -4.333  15.493  0.00  0.00    +0.000 HD
ATOM      8  H   UNL     1     -11.587  -6.680  15.396  0.00  0.00    +0.000 HD
ATOM      9  H   UNL     1      -9.157  -6.393  18.955  0.00  0.00    +0.000 HD
ATOM     10  H   UNL     1      -9.705  -4.019  19.112  0.00  0.00    +0.000 HD
ENDROOT
BRANCH   1  14
ATOM     11  C   UNL     1     -10.712   0.037  16.203  0.00  0.00    +0.000 C 
ATOM     12  C   UNL     1     -11.677  -0.938  15.540  0.00  0.00    +0.000 C 
ATOM     13  C   UNL     1     -12.268  -1.966  16.505  0.00  0.00    +0.000 C 
ATOM     14  N   UNL     1     -11.281  -2.545  17.495  0.00  0.00    +0.000 NA
ATOM     15  C   UNL     1     -10.076  -1.742  17.911  0.00  0.00    +0.000 C 
ATOM     16  C   UNL     1      -9.591  -0.773  16.846  0.00  0.00    +0.000 C 
ATOM     17  H   UNL     1     -10.272   0.688  15.435  0.00  0.00    +0.000 HD
ATOM     18  H   UNL     1     -11.154  -1.460  14.728  0.00  0.00    +0.000 HD
ATOM     19  H   UNL     1     -12.502  -0.392  15.064  0.00  0.00    +0.000 HD
ATOM     20  H   UNL     1     -12.755  -2.775  15.948  0.00  0.00    +0.000 HD
ATOM     21  H   UNL     1     -13.054  -1.493  17.104  0.00  0.00    +0.000 HD
ATOM     22  H   UNL     1     -11.853  -2.561  18.353  0.00  0.00    +0.000 HD
ATOM     23  H   UNL     1      -9.262  -2.420  18.190  0.00  0.00    +0.000 HD
ATOM     24  H   UNL     1     -10.362  -1.230  18.835  0.00  0.00    +0.000 HD
ATOM     25  H   UNL     1      -9.061  -1.336  16.067  0.00  0.00    +0.000 HD
ATOM     26  H   UNL     1      -8.853  -0.098  17.296  0.00  0.00    +0.000 HD
BRANCH  11  28
ATOM     27  N   UNL     1     -10.622   1.583  18.103  0.00  0.00    +0.000 N 
ATOM     28  C   UNL     1     -11.420   0.939  17.210  0.00  0.00    +0.000 C 
ATOM     29  O   UNL     1     -12.622   1.156  17.183  0.00  0.00    +0.000 OA
ATOM     30  H   UNL     1     -11.104   2.114  18.822  0.00  0.00    +0.000 HD
ATOM     31  H   UNL     1      -9.713   1.224  18.368  0.00  0.00    +0.000 HD
ENDBRANCH  11  28
ENDBRANCH   1  14
BRANCH   4  32
ATOM     32  N   UNL     1     -10.017  -8.123  17.150  0.00  0.00    +0.000 N 
ATOM     33  C   UNL     1      -9.312  -8.791  16.155  0.00  0.00    +0.000 C 
ATOM     34  O   UNL     1      -8.872  -8.267  15.131  0.00  0.00    +0.000 OA
ATOM     35  H   UNL     1     -10.322  -8.661  17.952  0.00  0.00    +0.000 HD
BRANCH  33  36
ATOM     36  C   UNL     1      -9.058 -10.256  16.347  0.00  0.00    +0.000 A 
ATOM     37  C   UNL     1      -8.631 -11.092  15.310  0.00  0.00    +0.000 A 
ATOM     38  C   UNL     1      -8.497 -12.475  15.511  0.00  0.00    +0.000 A 
ATOM     39  C   UNL     1      -8.694 -13.012  16.796  0.00  0.00    +0.000 A 
ATOM     40  C   UNL     1      -8.665 -14.325  17.338  0.00  0.00    +0.000 A 
ATOM     41  C   UNL     1      -8.687 -14.202  18.709  0.00  0.00    +0.000 A 
ATOM     42  N   UNL     1      -8.904 -12.882  19.008  0.00  0.00    +0.000 N 
ATOM     43  C   UNL     1      -8.972 -12.141  17.848  0.00  0.00    +0.000 A 
ATOM     44  C   UNL     1      -9.218 -10.777  17.647  0.00  0.00    +0.000 A 
ATOM     45  H   UNL     1      -8.365 -10.702  14.334  0.00  0.00    +0.000 HD
ATOM     46  H   UNL     1      -8.190 -13.123  14.695  0.00  0.00    +0.000 HD
ATOM     47  H   UNL     1      -8.561 -15.251  16.790  0.00  0.00    +0.000 HD
ATOM     48  H   UNL     1      -8.564 -14.939  19.492  0.00  0.00    +0.000 HD
ATOM     49  H   UNL     1      -8.946 -12.498  19.942  0.00  0.00    +0.000 HD
ATOM     50  H   UNL     1      -9.508 -10.138  18.477  0.00  0.00    +0.000 HD
ENDBRANCH  33  36
ENDBRANCH   4  32
TORSDOF 4
ENDMDL
MODEL 7
REMARK VINA RESULT:   -10.077      2.570      3.132
REMARK INTER + INTRA:         -12.959
REMARK INTER:                 -12.311
REMARK INTRA:                  -0.648
REMARK UNBOUND:                -0.526
REMARK  Name = 
REMARK  4 active torsions:
REMARK  status: ('A' for Active; 'I' for Inactive)
REMARK    1  A    between atoms: C_2  and  C_4
REMARK    2  A    between atoms: N_7  and  C_8
REMARK    3  A    between atoms: C_11  and  N_12
REMARK    4  A    between atoms: C_13  and  C_15
REMARK                            x       y       z     vdW  Elec       q    Type
REMARK                         _______ _______ _______ _____ _____    ______ ____
ROOT
ATOM      1  C   UNL     1     -10.733  -4.047  17.880  0.00  0.00    +0.000 A 
ATOM      2  C   UNL     1     -11.466  -4.786  16.962  0.00  0.00    +0.000 A 
ATOM      3  C   UNL     1     -11.222  -6.161  16.820  0.00  0.00    +0.000 A 
ATOM      4  C   UNL     1     -10.207  -6.807  17.540  0.00  0.00    +0.000 A 
ATOM      5  C   UNL     1      -9.436  -6.043  18.419  0.00  0.00    +0.000 A 
ATOM      6  C   UNL     1      -9.708  -4.678  18.604  0.00  0.00    +0.000 A 
ATOM      7  H   UNL     1     -12.262  -4.355  16.364  0.00  0.00    +0.000 HD
ATOM      8  H   UNL     1     -11.847  -6.704  16.120  0.00  0.00    +0.000 HD
ATOM      9  H   UNL     1      -8.628  -6.499  18.993  0.00  0.00    +0.000 HD
ATOM     10  H   UNL     1      -9.092  -4.123  19.310  0.00  0.00    +0.000 HD
ENDROOT
BRANCH   1  14
ATOM     11  C   UNL     1     -10.208  -0.512  20.052  0.00  0.00    +0.000 C 
ATOM     12  C   UNL     1      -9.214  -0.973  18.993  0.00  0.00    +0.000 C 
ATOM     13  C   UNL     1      -9.871  -1.654  17.793  0.00  0.00    +0.000 C 
ATOM     14  N   UNL     1     -10.992  -2.608  18.142  0.00  0.00    +0.000 NA
ATOM     15  C   UNL     1     -11.786  -2.403  19.406  0.00  0.00    +0.000 C 
ATOM     16  C   UNL     1     -11.000  -1.729  20.518  0.00  0.00    +0.000 C 
ATOM     17  H   UNL     1      -9.658  -0.107  20.913  0.00  0.00    +0.000 HD
ATOM     18  H   UNL     1      -8.496  -1.663  19.456  0.00  0.00    +0.000 HD
ATOM     19  H   UNL     1      -8.622  -0.122  18.632  0.00  0.00    +0.000 HD
ATOM     20  H   UNL     1      -9.116  -2.172  17.190  0.00  0.00    +0.000 HD
ATOM     21  H   UNL     1     -10.313  -0.894  17.140  0.00  0.00    +0.000 HD
ATOM     22  H   UNL     1     -11.676  -2.382  17.403  0.00  0.00    +0.000 HD
ATOM     23  H   UNL     1     -12.170  -3.367  19.758  0.00  0.00    +0.000 HD
ATOM     24  H   UNL     1     -12.668  -1.825  19.115  0.00  0.00    +0.000 HD
ATOM     25  H   UNL     1     -10.310  -2.459  20.960  0.00  0.00    +0.000 HD
ATOM     26  H   UNL     1     -11.697  -1.439  21.315  0.00  0.00    +0.000 HD
BRANCH  11  28
ATOM     27  N   UNL     1     -12.178   0.922  20.316  0.00  0.00    +0.000 N 
ATOM     28  C   UNL     1     -11.115   0.600  19.532  0.00  0.00    +0.000 C 
ATOM     29  O   UNL     1     -10.876   1.238  18.519  0.00  0.00    +0.000 OA
ATOM     30  H   UNL     1     -12.824   1.603  19.926  0.00  0.00    +0.000 HD
ATOM     31  H   UNL     1     -12.588   0.262  20.965  0.00  0.00    +0.000 HD
ENDBRANCH  11  28
ENDBRANCH   1  14
BRANCH   4  32
ATOM     32  N   UNL     1      -9.920  -8.190  17.424  0.00  0.00    +0.000 N 
ATOM     33  C   UNL     1      -9.287  -8.814  16.354  0.00  0.00    +0.000 C 
ATOM     34  O   UNL     1      -8.894  -8.240  15.338  0.00  0.00    +0.000 OA
ATOM     35  H   UNL     1     -10.191  -8.767  18.210  0.00  0.00    +0.000 HD
BRANCH  33  36
ATOM     36  C   UNL     1      -9.055 -10.291  16.449  0.00  0.00    +0.000 A 
ATOM     37  C   UNL     1      -8.672 -11.069  15.351  0.00  0.00    +0.000 A 
ATOM     38  C   UNL     1      -8.559 -12.464  15.462  0.00  0.00    +0.000 A 
ATOM     39  C   UNL     1      -8.730 -13.075  16.717  0.00  0.00    +0.000 A 
ATOM     40  C   UNL     1      -8.710 -14.420  17.177  0.00  0.00    +0.000 A 
ATOM     41  C   UNL     1      -8.692 -14.381  18.553  0.00  0.00    +0.000 A 
ATOM     42  N   UNL     1      -8.876 -13.079  18.938  0.00  0.00    +0.000 N 
ATOM     43  C   UNL     1      -8.962 -12.267  17.828  0.00  0.00    +0.000 A 
ATOM     44  C   UNL     1      -9.189 -10.890  17.719  0.00  0.00    +0.000 A 
ATOM     45  H   UNL     1      -8.426 -10.624  14.393  0.00  0.00    +0.000 HD
ATOM     46  H   UNL     1      -8.286 -13.066  14.600  0.00  0.00    +0.000 HD
ATOM     47  H   UNL     1      -8.638 -15.312  16.570  0.00  0.00    +0.000 HD
ATOM     48  H   UNL     1      -8.561 -15.167  19.285  0.00  0.00    +0.000 HD
ATOM     49  H   UNL     1      -8.886 -12.753  19.894  0.00  0.00    +0.000 HD
ATOM     50  H   UNL     1      -9.444 -10.298  18.594  0.00  0.00    +0.000 HD
ENDBRANCH  33  36
ENDBRANCH   4  32
TORSDOF 4
ENDMDL
MODEL 8
REMARK VINA RESULT:    -9.804      1.741      2.447
REMARK INTER + INTRA:         -12.623
REMARK INTER:                 -12.346
REMARK INTRA:                  -0.277
REMARK UNBOUND:                -0.526
REMARK  Name = 
REMARK  4 active torsions:
REMARK  status: ('A' for Active; 'I' for Inactive)
REMARK    1  A    between atoms: C_2  and  C_4
REMARK    2  A    between atoms: N_7  and  C_8
REMARK    3  A    between atoms: C_11  and  N_12
REMARK    4  A    between atoms: C_13  and  C_15
REMARK                            x       y       z     vdW  Elec       q    Type
REMARK                         _______ _______ _______ _____ _____    ______ ____
ROOT
ATOM      1  C   UNL     1      -9.140  -4.267  19.465  0.00  0.00    +0.000 A 
ATOM      2  C   UNL     1      -8.096  -5.020  19.982  0.00  0.00    +0.000 A 
ATOM      3  C   UNL     1      -8.013  -6.391  19.689  0.00  0.00    +0.000 A 
ATOM      4  C   UNL     1      -8.996  -7.043  18.931  0.00  0.00    +0.000 A 
ATOM      5  C   UNL     1     -10.074  -6.287  18.463  0.00  0.00    +0.000 A 
ATOM      6  C   UNL     1     -10.137  -4.906  18.710  0.00  0.00    +0.000 A 
ATOM      7  H   UNL     1      -7.302  -4.589  20.583  0.00  0.00    +0.000 HD
ATOM      8  H   UNL     1      -7.158  -6.930  20.081  0.00  0.00    +0.000 HD
ATOM      9  H   UNL     1     -10.869  -6.752  17.879  0.00  0.00    +0.000 HD
ATOM     10  H   UNL     1     -10.987  -4.352  18.314  0.00  0.00    +0.000 HD
ENDROOT
BRANCH   1  14
ATOM     11  C   UNL     1     -10.773  -0.876  21.289  0.00  0.00    +0.000 C 
ATOM     12  C   UNL     1      -9.671  -1.702  21.942  0.00  0.00    +0.000 C 
ATOM     13  C   UNL     1      -8.652  -2.257  20.947  0.00  0.00    +0.000 C 
ATOM     14  N   UNL     1      -9.247  -2.799  19.667  0.00  0.00    +0.000 NA
ATOM     15  C   UNL     1     -10.560  -2.259  19.161  0.00  0.00    +0.000 C 
ATOM     16  C   UNL     1     -11.479  -1.757  20.264  0.00  0.00    +0.000 C 
ATOM     17  H   UNL     1     -11.505  -0.582  22.054  0.00  0.00    +0.000 HD
ATOM     18  H   UNL     1     -10.129  -2.532  22.495  0.00  0.00    +0.000 HD
ATOM     19  H   UNL     1      -9.138  -1.100  22.689  0.00  0.00    +0.000 HD
ATOM     20  H   UNL     1      -8.034  -3.025  21.425  0.00  0.00    +0.000 HD
ATOM     21  H   UNL     1      -7.965  -1.458  20.646  0.00  0.00    +0.000 HD
ATOM     22  H   UNL     1      -8.572  -2.444  18.973  0.00  0.00    +0.000 HD
ATOM     23  H   UNL     1     -11.074  -3.031  18.578  0.00  0.00    +0.000 HD
ATOM     24  H   UNL     1     -10.306  -1.472  18.447  0.00  0.00    +0.000 HD
ATOM     25  H   UNL     1     -11.925  -2.619  20.776  0.00  0.00    +0.000 HD
ATOM     26  H   UNL     1     -12.309  -1.206  19.805  0.00  0.00    +0.000 HD
BRANCH  11  28
ATOM     27  N   UNL     1      -9.979   1.431  21.527  0.00  0.00    +0.000 N 
ATOM     28  C   UNL     1     -10.228   0.406  20.667  0.00  0.00    +0.000 C 
ATOM     29  O   UNL     1      -9.941   0.506  19.484  0.00  0.00    +0.000 OA
ATOM     30  H   UNL     1      -9.697   2.307  21.097  0.00  0.00    +0.000 HD
ATOM     31  H   UNL     1     -10.462   1.520  22.412  0.00  0.00    +0.000 HD
ENDBRANCH  11  28
ENDBRANCH   1  14
BRANCH   4  32
ATOM     32  N   UNL     1      -8.958  -8.424  18.615  0.00  0.00    +0.000 N 
ATOM     33  C   UNL     1      -8.906  -8.977  17.341  0.00  0.00    +0.000 C 
ATOM     34  O   UNL     1      -8.898  -8.330  16.293  0.00  0.00    +0.000 OA
ATOM     35  H   UNL     1      -8.950  -9.060  19.404  0.00  0.00    +0.000 HD
BRANCH  33  36
ATOM     36  C   UNL     1      -8.841 -10.470  17.233  0.00  0.00    +0.000 A 
ATOM     37  C   UNL     1      -8.841 -11.311  18.351  0.00  0.00    +0.000 A 
ATOM     38  C   UNL     1      -8.682 -12.698  18.207  0.00  0.00    +0.000 A 
ATOM     39  C   UNL     1      -8.628 -13.260  16.919  0.00  0.00    +0.000 A 
ATOM     40  C   UNL     1      -8.456 -14.579  16.418  0.00  0.00    +0.000 A 
ATOM     41  C   UNL     1      -8.741 -14.546  15.072  0.00  0.00    +0.000 A 
ATOM     42  N   UNL     1      -8.907 -13.234  14.711  0.00  0.00    +0.000 N 
ATOM     43  C   UNL     1      -8.782 -12.422  15.817  0.00  0.00    +0.000 A 
ATOM     44  C   UNL     1      -8.828 -11.027  15.937  0.00  0.00    +0.000 A 
ATOM     45  H   UNL     1      -8.988 -10.927  19.354  0.00  0.00    +0.000 HD
ATOM     46  H   UNL     1      -8.656 -13.344  19.080  0.00  0.00    +0.000 HD
ATOM     47  H   UNL     1      -8.226 -15.467  16.992  0.00  0.00    +0.000 HD
ATOM     48  H   UNL     1      -8.843 -15.342  14.345  0.00  0.00    +0.000 HD
ATOM     49  H   UNL     1      -9.146 -12.913  13.783  0.00  0.00    +0.000 HD
ATOM     50  H   UNL     1      -8.872 -10.395  15.053  0.00  0.00    +0.000 HD
ENDBRANCH  33  36
ENDBRANCH   4  32
TORSDOF 4
ENDMDL
MODEL 9
REMARK VINA RESULT:    -9.691      4.435      5.304
REMARK INTER + INTRA:         -12.483
REMARK INTER:                 -11.933
REMARK INTRA:                  -0.550
REMARK UNBOUND:                -0.526
REMARK  Name = 
REMARK  4 active torsions:
REMARK  status: ('A' for Active; 'I' for Inactive)
REMARK    1  A    between atoms: C_2  and  C_4
REMARK    2  A    between atoms: N_7  and  C_8
REMARK    3  A    between atoms: C_11  and  N_12
REMARK    4  A    between atoms: C_13  and  C_15
REMARK                            x       y       z     vdW  Elec       q    Type
REMARK                         _______ _______ _______ _____ _____    ______ ____
ROOT
ATOM      1  C   UNL     1     -11.976  -2.899  16.173  0.00  0.00    +0.000 A 
ATOM      2  C   UNL     1     -11.622  -3.476  14.961  0.00  0.00    +0.000 A 
ATOM      3  C   UNL     1     -11.210  -4.818  14.923  0.00  0.00    +0.000 A 
ATOM      4  C   UNL     1     -11.085  -5.584  16.090  0.00  0.00    +0.000 A 
ATOM      5  C   UNL     1     -11.388  -4.977  17.311  0.00  0.00    +0.000 A 
ATOM      6  C   UNL     1     -11.849  -3.651  17.352  0.00  0.00    +0.000 A 
ATOM      7  H   UNL     1     -11.685  -2.945  14.017  0.00  0.00    +0.000 HD
ATOM      8  H   UNL     1     -10.983  -5.237  13.948  0.00  0.00    +0.000 HD
ATOM      9  H   UNL     1     -11.295  -5.529  18.247  0.00  0.00    +0.000 HD
ATOM     10  H   UNL     1     -12.089  -3.221  18.324  0.00  0.00    +0.000 HD
ENDROOT
BRANCH   1  14
ATOM     11  C   UNL     1     -11.673   1.236  15.626  0.00  0.00    +0.000 C 
ATOM     12  C   UNL     1     -12.105   0.295  14.507  0.00  0.00    +0.000 C 
ATOM     13  C   UNL     1     -12.962  -0.874  14.989  0.00  0.00    +0.000 C 
ATOM     14  N   UNL     1     -12.497  -1.512  16.279  0.00  0.00    +0.000 NA
ATOM     15  C   UNL     1     -11.721  -0.698  17.282  0.00  0.00    +0.000 C 
ATOM     16  C   UNL     1     -10.902   0.420  16.658  0.00  0.00    +0.000 C 
ATOM     17  H   UNL     1     -10.999   2.000  15.215  0.00  0.00    +0.000 HD
ATOM     18  H   UNL     1     -11.209  -0.093  14.004  0.00  0.00    +0.000 HD
ATOM     19  H   UNL     1     -12.665   0.848  13.742  0.00  0.00    +0.000 HD
ATOM     20  H   UNL     1     -13.042  -1.636  14.204  0.00  0.00    +0.000 HD
ATOM     21  H   UNL     1     -13.983  -0.524  15.177  0.00  0.00    +0.000 HD
ATOM     22  H   UNL     1     -13.398  -1.665  16.757  0.00  0.00    +0.000 HD
ATOM     23  H   UNL     1     -11.064  -1.357  17.860  0.00  0.00    +0.000 HD
ATOM     24  H   UNL     1     -12.458  -0.320  17.995  0.00  0.00    +0.000 HD
ATOM     25  H   UNL     1     -10.012  -0.013  16.182  0.00  0.00    +0.000 HD
ATOM     26  H   UNL     1     -10.537   1.076  17.458  0.00  0.00    +0.000 HD
BRANCH  11  28
ATOM     27  N   UNL     1     -13.809   2.411  15.374  0.00  0.00    +0.000 N 
ATOM     28  C   UNL     1     -12.862   1.967  16.243  0.00  0.00    +0.000 C 
ATOM     29  O   UNL     1     -13.022   2.084  17.448  0.00  0.00    +0.000 OA
ATOM     30  H   UNL     1     -14.554   2.969  15.782  0.00  0.00    +0.000 HD
ATOM     31  H   UNL     1     -13.597   2.616  14.406  0.00  0.00    +0.000 HD
ENDBRANCH  11  28
ENDBRANCH   1  14
BRANCH   4  32
ATOM     32  N   UNL     1     -10.667  -6.939  16.100  0.00  0.00    +0.000 N 
ATOM     33  C   UNL     1      -9.354  -7.396  16.122  0.00  0.00    +0.000 C 
ATOM     34  O   UNL     1      -8.357  -6.673  16.125  0.00  0.00    +0.000 OA
ATOM     35  H   UNL     1     -11.405  -7.631  16.109  0.00  0.00    +0.000 HD
BRANCH  33  36
ATOM     36  C   UNL     1      -9.134  -8.878  16.159  0.00  0.00    +0.000 A 
ATOM     37  C   UNL     1      -8.881  -9.634  15.010  0.00  0.00    +0.000 A 
ATOM     38  C   UNL     1      -8.777 -11.033  15.078  0.00  0.00    +0.000 A 
ATOM     39  C   UNL     1      -8.823 -11.671  16.331  0.00  0.00    +0.000 A 
ATOM     40  C   UNL     1      -8.773 -13.026  16.756  0.00  0.00    +0.000 A 
ATOM     41  C   UNL     1      -8.609 -13.020  18.122  0.00  0.00    +0.000 A 
ATOM     42  N   UNL     1      -8.732 -11.725  18.554  0.00  0.00    +0.000 N 
ATOM     43  C   UNL     1      -8.924 -10.887  17.477  0.00  0.00    +0.000 A 
ATOM     44  C   UNL     1      -9.141  -9.504  17.423  0.00  0.00    +0.000 A 
ATOM     45  H   UNL     1      -8.731  -9.170  14.041  0.00  0.00    +0.000 HD
ATOM     46  H   UNL     1      -8.606 -11.617  14.179  0.00  0.00    +0.000 HD
ATOM     47  H   UNL     1      -8.779 -13.905  16.125  0.00  0.00    +0.000 HD
ATOM     48  H   UNL     1      -8.412 -13.824  18.820  0.00  0.00    +0.000 HD
ATOM     49  H   UNL     1      -8.635 -11.421  19.513  0.00  0.00    +0.000 HD
ATOM     50  H   UNL     1      -9.293  -8.930  18.333  0.00  0.00    +0.000 HD
ENDBRANCH  33  36
ENDBRANCH   4  32
TORSDOF 4
ENDMDL
