MODEL 1
REMARK VINA RESULT:   -11.585      0.000      0.000
REMARK INTER + INTRA:         -13.282
REMARK INTER:                 -12.940
REMARK INTRA:                  -0.342
REMARK UNBOUND:                -0.342
REMARK  Name = 
REMARK  3 active torsions:
REMARK  status: ('A' for Active; 'I' for Inactive)
REMARK    1  A    between atoms: C_1  and  C_2
REMARK    2  A    between atoms: C_2  and  C_3
REMARK    3  A    between atoms: C_23  and  C_24
REMARK                            x       y       z     vdW  Elec       q    Type
REMARK                         _______ _______ _______ _____ _____    ______ ____
ROOT
ATOM      1  C   UNL     1     -10.651  -4.727  16.091  0.00  0.00    +0.000 C 
ATOM      2  C   UNL     1      -9.828  -3.689  16.870  0.00  0.00    +0.000 C 
ATOM      3  C   UNL     1      -9.661  -4.126  18.308  0.00  0.00    +0.000 C 
ATOM      4  O   UNL     1      -9.795  -3.334  19.236  0.00  0.00    +0.000 OA
ATOM      5  C   UNL     1      -9.310  -5.549  18.544  0.00  0.00    +0.000 C 
ATOM      6  C   UNL     1      -9.430  -6.437  17.545  0.00  0.00    +0.000 C 
ATOM      7  C   UNL     1      -9.932  -6.094  16.165  0.00  0.00    +0.000 C 
ATOM      8  N   UNL     1      -9.077  -7.737  17.806  0.00  0.00    +0.000 N 
ATOM      9  C   UNL     1      -8.763  -8.187  19.057  0.00  0.00    +0.000 C 
ATOM     10  N   UNL     1      -8.617  -9.538  19.196  0.00  0.00    +0.000 N 
ATOM     11  C   UNL     1      -8.666 -10.495  18.255  0.00  0.00    +0.000 A 
ATOM     12  N   UNL     1      -8.876 -10.367  16.958  0.00  0.00    +0.000 NA
ATOM     13  C   UNL     1      -8.810 -11.655  16.491  0.00  0.00    +0.000 A 
ATOM     14  C   UNL     1      -8.947 -12.171  15.197  0.00  0.00    +0.000 A 
ATOM     15  C   UNL     1      -8.833 -13.559  15.027  0.00  0.00    +0.000 A 
ATOM     16  C   UNL     1      -8.588 -14.405  16.115  0.00  0.00    +0.000 A 
ATOM     17  C   UNL     1      -8.445 -13.901  17.415  0.00  0.00    +0.000 A 
ATOM     18  C   UNL     1      -8.565 -12.523  17.542  0.00  0.00    +0.000 A 
ATOM     19  O   UNL     1      -8.471 -11.778  18.684  0.00  0.00    +0.000 OA
ATOM     20  N   UNL     1      -8.616  -7.425  20.095  0.00  0.00    +0.000 NA
ATOM     21  C   UNL     1      -8.755  -5.949  19.891  0.00  0.00    +0.000 C 
ATOM     22  H   UNL     1     -10.319  -2.709  16.853  0.00  0.00    +0.000 HD
ATOM     23  H   UNL     1      -8.827  -3.565  16.438  0.00  0.00    +0.000 HD
ATOM     24  H   UNL     1     -10.610  -6.882  15.813  0.00  0.00    +0.000 HD
ATOM     25  H   UNL     1      -9.067  -6.100  15.489  0.00  0.00    +0.000 HD
ATOM     26  H   UNL     1      -9.172  -8.424  17.059  0.00  0.00    +0.000 HD
ATOM     27  H   UNL     1      -8.426  -9.824  20.146  0.00  0.00    +0.000 HD
ATOM     28  H   UNL     1      -9.137 -11.515  14.356  0.00  0.00    +0.000 HD
ATOM     29  H   UNL     1      -8.937 -13.983  14.028  0.00  0.00    +0.000 HD
ATOM     30  H   UNL     1      -8.508 -15.478  15.947  0.00  0.00    +0.000 HD
ATOM     31  H   UNL     1      -8.254 -14.542  18.267  0.00  0.00    +0.000 HD
ATOM     32  H   UNL     1      -9.460  -5.610  20.661  0.00  0.00    +0.000 HD
ENDROOT
BRANCH  21  33
ATOM     33  C   UNL     1      -7.387  -5.330  20.116  0.00  0.00    +0.000 A 
ATOM     34  C   UNL     1      -7.032  -4.383  21.062  0.00  0.00    +0.000 A 
ATOM     35  C   UNL     1      -5.629  -4.161  21.109  0.00  0.00    +0.000 A 
ATOM     36  C   UNL     1      -4.958  -4.918  20.176  0.00  0.00    +0.000 A 
ATOM     37  S   UNL     1      -6.023  -5.860  19.225  0.00  0.00    +0.000 S 
ATOM     38  H   UNL     1      -7.754  -3.912  21.719  0.00  0.00    +0.000 HD
ATOM     39  H   UNL     1      -5.136  -3.494  21.804  0.00  0.00    +0.000 HD
ATOM     40  H   UNL     1      -3.893  -4.965  20.001  0.00  0.00    +0.000 HD
ENDBRANCH  21  33
BRANCH   1  41
ATOM     41  C   UNL     1     -10.771  -4.293  14.622  0.00  0.00    +0.000 C 
ATOM     42  H   UNL     1     -11.444  -3.433  14.518  0.00  0.00    +0.000 HD
ATOM     43  H   UNL     1     -11.167  -5.104  14.003  0.00  0.00    +0.000 HD
ATOM     44  H   UNL     1      -9.797  -4.003  14.211  0.00  0.00    +0.000 HD
ENDBRANCH   1  41
BRANCH   1  45
ATOM     45  C   UNL     1     -12.075  -4.824  16.682  0.00  0.00    +0.000 C 
ATOM     46  H   UNL     1     -12.381  -5.871  16.791  0.00  0.00    +0.000 HD
ATOM     47  H   UNL     1     -12.825  -4.329  16.057  0.00  0.00    +0.000 HD
ATOM     48  H   UNL     1     -12.121  -4.358  17.673  0.00  0.00    +0.000 HD
ENDBRANCH   1  45
TORSDOF 3
ENDMDL
MODEL 2
REMARK VINA RESULT:    -9.654      3.661      4.786
REMARK INTER + INTRA:         -11.125
REMARK INTER:                 -10.752
REMARK INTRA:                  -0.372
REMARK UNBOUND:                -0.342
REMARK  Name = 
REMARK  3 active torsions:
REMARK  status: ('A' for Active; 'I' for Inactive)
REMARK    1  A    between atoms: C_1  and  C_2
REMARK    2  A    between atoms: C_2  and  C_3
REMARK    3  A    between atoms: C_23  and  C_24
REMARK                            x       y       z     vdW  Elec       q    Type
REMARK                         _______ _______ _______ _____ _____    ______ ____
ROOT
ATOM      1  C   UNL     1     -11.696  -2.965  12.129  0.00  0.00    +0.000 C 
ATOM      2  C   UNL     1     -11.551  -1.610  12.840  0.00  0.00    +0.000 C 
ATOM      3  C   UNL     1     -12.117  -1.691  14.240  0.00  0.00    +0.000 C 
ATOM      4  O   UNL     1     -12.822  -0.796  14.696  0.00  0.00    +0.000 OA
ATOM      5  C   UNL     1     -11.767  -2.891  15.041  0.00  0.00    +0.000 C 
ATOM      6  C   UNL     1     -11.226  -3.958  14.435  0.00  0.00    +0.000 C 
ATOM      7  C   UNL     1     -10.958  -4.045  12.954  0.00  0.00    +0.000 C 
ATOM      8  N   UNL     1     -10.903  -5.037  15.220  0.00  0.00    +0.000 N 
ATOM      9  C   UNL     1     -11.245  -5.127  16.540  0.00  0.00    +0.000 C 
ATOM     10  N   UNL     1     -11.024  -6.334  17.141  0.00  0.00    +0.000 N 
ATOM     11  C   UNL     1     -10.445  -7.436  16.638  0.00  0.00    +0.000 A 
ATOM     12  N   UNL     1      -9.950  -7.630  15.430  0.00  0.00    +0.000 NA
ATOM     13  C   UNL     1      -9.484  -8.919  15.474  0.00  0.00    +0.000 A 
ATOM     14  C   UNL     1      -8.847  -9.700  14.503  0.00  0.00    +0.000 A 
ATOM     15  C   UNL     1      -8.485 -11.011  14.845  0.00  0.00    +0.000 A 
ATOM     16  C   UNL     1      -8.749 -11.526  16.119  0.00  0.00    +0.000 A 
ATOM     17  C   UNL     1      -9.381 -10.754  17.104  0.00  0.00    +0.000 A 
ATOM     18  C   UNL     1      -9.725  -9.462  16.725  0.00  0.00    +0.000 A 
ATOM     19  O   UNL     1     -10.346  -8.507  17.480  0.00  0.00    +0.000 OA
ATOM     20  N   UNL     1     -11.769  -4.163  17.228  0.00  0.00    +0.000 NA
ATOM     21  C   UNL     1     -11.964  -2.850  16.538  0.00  0.00    +0.000 C 
ATOM     22  H   UNL     1     -12.078  -0.822  12.290  0.00  0.00    +0.000 HD
ATOM     23  H   UNL     1     -10.498  -1.310  12.921  0.00  0.00    +0.000 HD
ATOM     24  H   UNL     1     -11.240  -5.040  12.586  0.00  0.00    +0.000 HD
ATOM     25  H   UNL     1      -9.874  -3.953  12.808  0.00  0.00    +0.000 HD
ATOM     26  H   UNL     1     -10.498  -5.859  14.771  0.00  0.00    +0.000 HD
ATOM     27  H   UNL     1     -11.331  -6.363  18.103  0.00  0.00    +0.000 HD
ATOM     28  H   UNL     1      -8.644  -9.300  13.515  0.00  0.00    +0.000 HD
ATOM     29  H   UNL     1      -7.988 -11.637  14.104  0.00  0.00    +0.000 HD
ATOM     30  H   UNL     1      -8.456 -12.550  16.351  0.00  0.00    +0.000 HD
ATOM     31  H   UNL     1      -9.591 -11.138  18.095  0.00  0.00    +0.000 HD
ATOM     32  H   UNL     1     -13.007  -2.567  16.734  0.00  0.00    +0.000 HD
ENDROOT
BRANCH  21  33
ATOM     33  C   UNL     1     -11.016  -1.854  17.181  0.00  0.00    +0.000 A 
ATOM     34  C   UNL     1      -9.764  -1.467  16.735  0.00  0.00    +0.000 A 
ATOM     35  C   UNL     1      -9.231  -0.383  17.482  0.00  0.00    +0.000 A 
ATOM     36  C   UNL     1     -10.073   0.003  18.500  0.00  0.00    +0.000 A 
ATOM     37  S   UNL     1     -11.482  -0.966  18.571  0.00  0.00    +0.000 S 
ATOM     38  H   UNL     1      -9.283  -1.920  15.875  0.00  0.00    +0.000 HD
ATOM     39  H   UNL     1      -8.285   0.100  17.274  0.00  0.00    +0.000 HD
ATOM     40  H   UNL     1      -9.934   0.805  19.209  0.00  0.00    +0.000 HD
ENDBRANCH  21  33
BRANCH   1  41
ATOM     41  C   UNL     1     -11.074  -2.880  10.726  0.00  0.00    +0.000 C 
ATOM     42  H   UNL     1     -10.180  -2.245  10.729  0.00  0.00    +0.000 HD
ATOM     43  H   UNL     1     -11.782  -2.457  10.007  0.00  0.00    +0.000 HD
ATOM     44  H   UNL     1     -10.777  -3.870  10.362  0.00  0.00    +0.000 HD
ENDBRANCH   1  41
BRANCH   1  45
ATOM     45  C   UNL     1     -13.191  -3.321  11.971  0.00  0.00    +0.000 C 
ATOM     46  H   UNL     1     -13.554  -3.045  10.975  0.00  0.00    +0.000 HD
ATOM     47  H   UNL     1     -13.825  -2.810  12.703  0.00  0.00    +0.000 HD
ATOM     48  H   UNL     1     -13.353  -4.397  12.099  0.00  0.00    +0.000 HD
ENDBRANCH   1  45
TORSDOF 3
ENDMDL
MODEL 3
REMARK VINA RESULT:    -9.071      2.710      3.660
REMARK INTER + INTRA:         -10.474
REMARK INTER:                 -10.204
REMARK INTRA:                  -0.271
REMARK UNBOUND:                -0.342
REMARK  Name = 
REMARK  3 active torsions:
REMARK  status: ('A' for Active; 'I' for Inactive)
REMARK    1  A    between atoms: C_1  and  C_2
REMARK    2  A    between atoms: C_2  and  C_3
REMARK    3  A    between atoms: C_23  and  C_24
REMARK                            x       y       z     vdW  Elec       q    Type
REMARK                         _______ _______ _______ _____ _____    ______ ____
ROOT
ATOM      1  C   UNL     1     -10.778  -2.524  13.651  0.00  0.00    +0.000 C 
ATOM      2  C   UNL     1     -10.693  -1.392  14.687  0.00  0.00    +0.000 C 
ATOM      3  C   UNL     1     -11.449  -1.773  15.941  0.00  0.00    +0.000 C 
ATOM      4  O   UNL     1     -12.183  -0.972  16.512  0.00  0.00    +0.000 OA
ATOM      5  C   UNL     1     -11.248  -3.150  16.458  0.00  0.00    +0.000 C 
ATOM      6  C   UNL     1     -10.660  -4.071  15.680  0.00  0.00    +0.000 C 
ATOM      7  C   UNL     1     -10.194  -3.815  14.269  0.00  0.00    +0.000 C 
ATOM      8  N   UNL     1     -10.480  -5.325  16.208  0.00  0.00    +0.000 N 
ATOM      9  C   UNL     1     -11.004  -5.710  17.410  0.00  0.00    +0.000 C 
ATOM     10  N   UNL     1     -10.904  -7.037  17.717  0.00  0.00    +0.000 N 
ATOM     11  C   UNL     1     -10.294  -8.019  17.034  0.00  0.00    +0.000 A 
ATOM     12  N   UNL     1      -9.643  -7.947  15.889  0.00  0.00    +0.000 NA
ATOM     13  C   UNL     1      -9.225  -9.235  15.671  0.00  0.00    +0.000 A 
ATOM     14  C   UNL     1      -8.484  -9.797  14.625  0.00  0.00    +0.000 A 
ATOM     15  C   UNL     1      -8.211 -11.172  14.676  0.00  0.00    +0.000 A 
ATOM     16  C   UNL     1      -8.664 -11.962  15.739  0.00  0.00    +0.000 A 
ATOM     17  C   UNL     1      -9.403 -11.412  16.796  0.00  0.00    +0.000 A 
ATOM     18  C   UNL     1      -9.653 -10.048  16.708  0.00  0.00    +0.000 A 
ATOM     19  O   UNL     1     -10.343  -9.267  17.591  0.00  0.00    +0.000 OA
ATOM     20  N   UNL     1     -11.589  -4.909  18.244  0.00  0.00    +0.000 NA
ATOM     21  C   UNL     1     -11.648  -3.459  17.881  0.00  0.00    +0.000 C 
ATOM     22  H   UNL     1     -11.115  -0.463  14.288  0.00  0.00    +0.000 HD
ATOM     23  H   UNL     1      -9.653  -1.187  14.973  0.00  0.00    +0.000 HD
ATOM     24  H   UNL     1     -10.451  -4.672  13.634  0.00  0.00    +0.000 HD
ATOM     25  H   UNL     1      -9.098  -3.759  14.290  0.00  0.00    +0.000 HD
ATOM     26  H   UNL     1     -10.043  -6.039  15.625  0.00  0.00    +0.000 HD
ATOM     27  H   UNL     1     -11.341  -7.278  18.596  0.00  0.00    +0.000 HD
ATOM     28  H   UNL     1      -8.136  -9.184  13.801  0.00  0.00    +0.000 HD
ATOM     29  H   UNL     1      -7.636 -11.631  13.871  0.00  0.00    +0.000 HD
ATOM     30  H   UNL     1      -8.436 -13.027  15.746  0.00  0.00    +0.000 HD
ATOM     31  H   UNL     1      -9.759 -12.009  17.626  0.00  0.00    +0.000 HD
ATOM     32  H   UNL     1     -12.699  -3.167  18.008  0.00  0.00    +0.000 HD
ENDROOT
BRANCH  21  33
ATOM     33  C   UNL     1     -10.769  -2.709  18.865  0.00  0.00    +0.000 A 
ATOM     34  C   UNL     1     -11.106  -1.609  19.635  0.00  0.00    +0.000 A 
ATOM     35  C   UNL     1     -10.097  -1.274  20.577  0.00  0.00    +0.000 A 
ATOM     36  C   UNL     1      -9.004  -2.105  20.476  0.00  0.00    +0.000 A 
ATOM     37  S   UNL     1      -9.184  -3.256  19.224  0.00  0.00    +0.000 S 
ATOM     38  H   UNL     1     -12.062  -1.105  19.548  0.00  0.00    +0.000 HD
ATOM     39  H   UNL     1     -10.176  -0.476  21.304  0.00  0.00    +0.000 HD
ATOM     40  H   UNL     1      -8.105  -2.094  21.074  0.00  0.00    +0.000 HD
ENDBRANCH  21  33
BRANCH   1  41
ATOM     41  C   UNL     1      -9.966  -2.142  12.403  0.00  0.00    +0.000 C 
ATOM     42  H   UNL     1      -9.869  -1.054  12.313  0.00  0.00    +0.000 HD
ATOM     43  H   UNL     1     -10.448  -2.512  11.492  0.00  0.00    +0.000 HD
ATOM     44  H   UNL     1      -8.956  -2.564  12.442  0.00  0.00    +0.000 HD
ENDBRANCH   1  41
BRANCH   1  45
ATOM     45  C   UNL     1     -12.247  -2.737  13.222  0.00  0.00    +0.000 C 
ATOM     46  H   UNL     1     -12.920  -2.652  14.083  0.00  0.00    +0.000 HD
ATOM     47  H   UNL     1     -12.415  -3.722  12.773  0.00  0.00    +0.000 HD
ATOM     48  H   UNL     1     -12.553  -1.988  12.483  0.00  0.00    +0.000 HD
ENDBRANCH   1  45
TORSDOF 3
ENDMDL
MODEL 4
REMARK VINA RESULT:    -9.034      2.770      7.675
REMARK INTER + INTRA:         -10.433
REMARK INTER:                 -10.468
REMARK INTRA:                   0.035
REMARK UNBOUND:                -0.342
REMARK  Name = 
REMARK  3 active torsions:
REMARK  status: ('A' for Active; 'I' for Inactive)
REMARK    1  A    between atoms: C_1  and  C_2
REMARK    2  A    between atoms: C_2  and  C_3
REMARK    3  A    between atoms: C_23  and  C_24
REMARK                            x       y       z     vdW  Elec       q    Type
REMARK                         _______ _______ _______ _____ _____    ______ ____
ROOT
ATOM      1  C   UNL     1      -7.125  -5.818  19.685  0.00  0.00    +0.000 C 
ATOM      2  C   UNL     1      -6.944  -7.344  19.725  0.00  0.00    +0.000 C 
ATOM      3  C   UNL     1      -8.257  -8.034  19.428  0.00  0.00    +0.000 C 
ATOM      4  O   UNL     1      -8.632  -9.002  20.083  0.00  0.00    +0.000 OA
ATOM      5  C   UNL     1      -9.061  -7.500  18.300  0.00  0.00    +0.000 C 
ATOM      6  C   UNL     1      -8.761  -6.299  17.782  0.00  0.00    +0.000 C 
ATOM      7  C   UNL     1      -7.652  -5.412  18.289  0.00  0.00    +0.000 C 
ATOM      8  N   UNL     1      -9.520  -5.855  16.729  0.00  0.00    +0.000 N 
ATOM      9  C   UNL     1     -10.643  -6.502  16.295  0.00  0.00    +0.000 C 
ATOM     10  N   UNL     1     -11.399  -5.845  15.366  0.00  0.00    +0.000 N 
ATOM     11  C   UNL     1     -11.158  -4.674  14.754  0.00  0.00    +0.000 A 
ATOM     12  N   UNL     1     -10.131  -3.860  14.905  0.00  0.00    +0.000 NA
ATOM     13  C   UNL     1     -10.399  -2.835  14.035  0.00  0.00    +0.000 A 
ATOM     14  C   UNL     1      -9.680  -1.672  13.735  0.00  0.00    +0.000 A 
ATOM     15  C   UNL     1     -10.219  -0.790  12.786  0.00  0.00    +0.000 A 
ATOM     16  C   UNL     1     -11.438  -1.063  12.155  0.00  0.00    +0.000 A 
ATOM     17  C   UNL     1     -12.167  -2.226  12.442  0.00  0.00    +0.000 A 
ATOM     18  C   UNL     1     -11.600  -3.072  13.387  0.00  0.00    +0.000 A 
ATOM     19  O   UNL     1     -12.094  -4.260  13.848  0.00  0.00    +0.000 OA
ATOM     20  N   UNL     1     -11.029  -7.664  16.719  0.00  0.00    +0.000 NA
ATOM     21  C   UNL     1     -10.155  -8.360  17.713  0.00  0.00    +0.000 C 
ATOM     22  H   UNL     1      -6.587  -7.670  20.708  0.00  0.00    +0.000 HD
ATOM     23  H   UNL     1      -6.213  -7.680  18.979  0.00  0.00    +0.000 HD
ATOM     24  H   UNL     1      -7.996  -4.371  18.318  0.00  0.00    +0.000 HD
ATOM     25  H   UNL     1      -6.837  -5.452  17.554  0.00  0.00    +0.000 HD
ATOM     26  H   UNL     1      -9.310  -4.940  16.331  0.00  0.00    +0.000 HD
ATOM     27  H   UNL     1     -12.239  -6.345  15.108  0.00  0.00    +0.000 HD
ATOM     28  H   UNL     1      -8.736  -1.462  14.226  0.00  0.00    +0.000 HD
ATOM     29  H   UNL     1      -9.677   0.122  12.539  0.00  0.00    +0.000 HD
ATOM     30  H   UNL     1     -11.830  -0.355  11.425  0.00  0.00    +0.000 HD
ATOM     31  H   UNL     1     -13.110  -2.452  11.961  0.00  0.00    +0.000 HD
ATOM     32  H   UNL     1     -10.823  -8.662  18.532  0.00  0.00    +0.000 HD
ENDROOT
BRANCH  21  33
ATOM     33  C   UNL     1      -9.573  -9.583  17.028  0.00  0.00    +0.000 A 
ATOM     34  C   UNL     1      -9.234 -10.795  17.604  0.00  0.00    +0.000 A 
ATOM     35  C   UNL     1      -8.885 -11.777  16.638  0.00  0.00    +0.000 A 
ATOM     36  C   UNL     1      -8.932 -11.277  15.357  0.00  0.00    +0.000 A 
ATOM     37  S   UNL     1      -9.360  -9.621  15.328  0.00  0.00    +0.000 S 
ATOM     38  H   UNL     1      -9.286 -10.971  18.672  0.00  0.00    +0.000 HD
ATOM     39  H   UNL     1      -8.628 -12.803  16.870  0.00  0.00    +0.000 HD
ATOM     40  H   UNL     1      -8.736 -11.800  14.432  0.00  0.00    +0.000 HD
ENDBRANCH  21  33
BRANCH   1  41
ATOM     41  C   UNL     1      -5.774  -5.132  19.940  0.00  0.00    +0.000 C 
ATOM     42  H   UNL     1      -5.870  -4.041  19.893  0.00  0.00    +0.000 HD
ATOM     43  H   UNL     1      -5.032  -5.436  19.195  0.00  0.00    +0.000 HD
ATOM     44  H   UNL     1      -5.379  -5.388  20.930  0.00  0.00    +0.000 HD
ENDBRANCH   1  41
BRANCH   1  45
ATOM     45  C   UNL     1      -8.107  -5.374  20.792  0.00  0.00    +0.000 C 
ATOM     46  H   UNL     1      -7.728  -4.491  21.317  0.00  0.00    +0.000 HD
ATOM     47  H   UNL     1      -8.276  -6.153  21.542  0.00  0.00    +0.000 HD
ATOM     48  H   UNL     1      -9.085  -5.116  20.368  0.00  0.00    +0.000 HD
ENDBRANCH   1  45
TORSDOF 3
ENDMDL
MODEL 5
REMARK VINA RESULT:    -8.819      3.360      5.609
REMARK INTER + INTRA:         -10.192
REMARK INTER:                  -9.710
REMARK INTRA:                  -0.482
REMARK UNBOUND:                -0.342
REMARK  Name = 
REMARK  3 active torsions:
REMARK  status: ('A' for Active; 'I' for Inactive)
REMARK    1  A    between atoms: C_1  and  C_2
REMARK    2  A    between atoms: C_2  and  C_3
REMARK    3  A    between atoms: C_23  and  C_24
REMARK                            x       y       z     vdW  Elec       q    Type
REMARK                         _______ _______ _______ _____ _____    ______ ____
ROOT
ATOM      1  C   UNL     1     -11.085  -3.169  18.244  0.00  0.00    +0.000 C 
ATOM      2  C   UNL     1     -11.663  -2.203  17.197  0.00  0.00    +0.000 C 
ATOM      3  C   UNL     1     -10.804  -2.205  15.952  0.00  0.00    +0.000 C 
ATOM      4  O   UNL     1     -10.507  -1.161  15.380  0.00  0.00    +0.000 OA
ATOM      5  C   UNL     1     -10.353  -3.526  15.446  0.00  0.00    +0.000 C 
ATOM      6  C   UNL     1     -10.468  -4.611  16.227  0.00  0.00    +0.000 C 
ATOM      7  C   UNL     1     -11.014  -4.587  17.633  0.00  0.00    +0.000 C 
ATOM      8  N   UNL     1     -10.055  -5.812  15.709  0.00  0.00    +0.000 N 
ATOM      9  C   UNL     1      -9.402  -5.923  14.514  0.00  0.00    +0.000 C 
ATOM     10  N   UNL     1      -8.886  -7.153  14.218  0.00  0.00    +0.000 N 
ATOM     11  C   UNL     1      -8.991  -8.302  14.904  0.00  0.00    +0.000 A 
ATOM     12  N   UNL     1      -9.616  -8.527  16.045  0.00  0.00    +0.000 NA
ATOM     13  C   UNL     1      -9.406  -9.864  16.270  0.00  0.00    +0.000 A 
ATOM     14  C   UNL     1      -9.823 -10.696  17.315  0.00  0.00    +0.000 A 
ATOM     15  C   UNL     1      -9.443 -12.046  17.275  0.00  0.00    +0.000 A 
ATOM     16  C   UNL     1      -8.671 -12.549  16.222  0.00  0.00    +0.000 A 
ATOM     17  C   UNL     1      -8.250 -11.729  15.166  0.00  0.00    +0.000 A 
ATOM     18  C   UNL     1      -8.646 -10.399  15.243  0.00  0.00    +0.000 A 
ATOM     19  O   UNL     1      -8.376  -9.394  14.358  0.00  0.00    +0.000 OA
ATOM     20  N   UNL     1      -9.234  -4.948  13.677  0.00  0.00    +0.000 NA
ATOM     21  C   UNL     1      -9.842  -3.627  14.028  0.00  0.00    +0.000 C 
ATOM     22  H   UNL     1     -11.712  -1.182  17.592  0.00  0.00    +0.000 HD
ATOM     23  H   UNL     1     -12.680  -2.493  16.903  0.00  0.00    +0.000 HD
ATOM     24  H   UNL     1     -10.403  -5.232  18.277  0.00  0.00    +0.000 HD
ATOM     25  H   UNL     1     -12.016  -5.034  17.604  0.00  0.00    +0.000 HD
ATOM     26  H   UNL     1     -10.127  -6.644  16.295  0.00  0.00    +0.000 HD
ATOM     27  H   UNL     1      -8.378  -7.173  13.344  0.00  0.00    +0.000 HD
ATOM     28  H   UNL     1     -10.420 -10.304  18.132  0.00  0.00    +0.000 HD
ATOM     29  H   UNL     1      -9.755 -12.711  18.079  0.00  0.00    +0.000 HD
ATOM     30  H   UNL     1      -8.390 -13.602  16.223  0.00  0.00    +0.000 HD
ATOM     31  H   UNL     1      -7.654 -12.103  14.343  0.00  0.00    +0.000 HD
ATOM     32  H   UNL     1      -9.036  -2.890  13.906  0.00  0.00    +0.000 HD
ENDROOT
BRANCH  21  33
ATOM     33  C   UNL     1     -10.956  -3.361  13.032  0.00  0.00    +0.000 A 
ATOM     34  C   UNL     1     -12.229  -3.906  13.019  0.00  0.00    +0.000 A 
ATOM     35  C   UNL     1     -13.071  -3.299  12.049  0.00  0.00    +0.000 A 
ATOM     36  C   UNL     1     -12.407  -2.335  11.325  0.00  0.00    +0.000 A 
ATOM     37  S   UNL     1     -10.768  -2.193  11.792  0.00  0.00    +0.000 S 
ATOM     38  H   UNL     1     -12.544  -4.674  13.716  0.00  0.00    +0.000 HD
ATOM     39  H   UNL     1     -14.114  -3.545  11.901  0.00  0.00    +0.000 HD
ATOM     40  H   UNL     1     -12.802  -1.705  10.541  0.00  0.00    +0.000 HD
ENDBRANCH  21  33
BRANCH   1  41
ATOM     41  C   UNL     1     -11.994  -3.191  19.482  0.00  0.00    +0.000 C 
ATOM     42  H   UNL     1     -12.096  -4.208  19.879  0.00  0.00    +0.000 HD
ATOM     43  H   UNL     1     -12.997  -2.823  19.241  0.00  0.00    +0.000 HD
ATOM     44  H   UNL     1     -11.591  -2.561  20.283  0.00  0.00    +0.000 HD
ENDBRANCH   1  41
BRANCH   1  45
ATOM     45  C   UNL     1      -9.683  -2.691  18.685  0.00  0.00    +0.000 C 
ATOM     46  H   UNL     1      -9.195  -2.124  17.884  0.00  0.00    +0.000 HD
ATOM     47  H   UNL     1      -9.020  -3.521  18.948  0.00  0.00    +0.000 HD
ATOM     48  H   UNL     1      -9.749  -2.039  19.563  0.00  0.00    +0.000 HD
ENDBRANCH   1  45
TORSDOF 3
ENDMDL
