MODEL 1
REMARK VINA RESULT:   -10.590      0.000      0.000
REMARK INTER + INTRA:         -12.268
REMARK INTER:                 -13.066
REMARK INTRA:                   0.798
REMARK UNBOUND:                 0.798
REMARK  Name = 
REMARK  5 active torsions:
REMARK  status: ('A' for Active; 'I' for Inactive)
REMARK    1  A    between atoms: C_1  and  C_2
REMARK    2  A    between atoms: C_2  and  C_3
REMARK    3  A    between atoms: C_3  and  C_4
REMARK    4  A    between atoms: C_7  and  C_8
REMARK    5  A    between atoms: C_21  and  C_22
REMARK                            x       y       z     vdW  Elec       q    Type
REMARK                         _______ _______ _______ _____ _____    ______ ____
ROOT
ATOM      1  C   UNL     1      -8.588 -11.111  18.429  0.00  0.00    +0.000 C 
ATOM      2  O   UNL     1      -7.805 -10.659  19.277  0.00  0.00    +0.000 OA
ATOM      3  N   UNL     1      -9.362 -10.230  17.681  0.00  0.00    +0.000 N 
ATOM      4  C   UNL     1     -10.319 -10.479  16.617  0.00  0.00    +0.000 C 
ATOM      5  C   UNL     1     -10.280  -9.198  15.790  0.00  0.00    +0.000 C 
ATOM      6  C   UNL     1      -9.081  -9.136  14.846  0.00  0.00    +0.000 C 
ATOM      7  C   UNL     1      -8.659  -7.670  14.797  0.00  0.00    +0.000 C 
ATOM      8  C   UNL     1      -9.218  -6.994  16.067  0.00  0.00    +0.000 C 
ATOM      9  N   UNL     1      -8.179  -6.407  16.867  0.00  0.00    +0.000 N 
ATOM     10  C   UNL     1      -8.524  -5.675  17.976  0.00  0.00    +0.000 C 
ATOM     11  O   UNL     1      -7.815  -5.645  18.974  0.00  0.00    +0.000 OA
ATOM     12  C   UNL     1      -9.793  -4.929  17.876  0.00  0.00    +0.000 A 
ATOM     13  C   UNL     1     -10.208  -4.096  18.916  0.00  0.00    +0.000 A 
ATOM     14  C   UNL     1     -11.328  -3.281  18.742  0.00  0.00    +0.000 A 
ATOM     15  C   UNL     1     -12.016  -3.324  17.521  0.00  0.00    +0.000 A 
ATOM     16  C   UNL     1     -11.611  -4.192  16.498  0.00  0.00    +0.000 A 
ATOM     17  C   UNL     1     -10.519  -5.041  16.683  0.00  0.00    +0.000 A 
ATOM     18  N   UNL     1     -10.085  -5.890  15.652  0.00  0.00    +0.000 N 
ATOM     19  C   UNL     1     -10.016  -8.094  16.816  0.00  0.00    +0.000 C 
ATOM     20  C   UNL     1      -9.258  -8.808  17.947  0.00  0.00    +0.000 C 
ATOM     21  H   UNL     1     -11.300 -10.605  17.093  0.00  0.00    +0.000 HD
ATOM     22  H   UNL     1     -10.084 -11.358  16.016  0.00  0.00    +0.000 HD
ATOM     23  H   UNL     1     -11.209  -9.033  15.234  0.00  0.00    +0.000 HD
ATOM     24  H   UNL     1      -9.342  -9.513  13.851  0.00  0.00    +0.000 HD
ATOM     25  H   UNL     1      -8.246  -9.747  15.209  0.00  0.00    +0.000 HD
ATOM     26  H   UNL     1      -9.057  -7.213  13.882  0.00  0.00    +0.000 HD
ATOM     27  H   UNL     1      -7.567  -7.603  14.729  0.00  0.00    +0.000 HD
ATOM     28  H   UNL     1      -7.314  -6.918  16.988  0.00  0.00    +0.000 HD
ATOM     29  H   UNL     1      -9.633  -4.064  19.839  0.00  0.00    +0.000 HD
ATOM     30  H   UNL     1     -12.868  -2.668  17.352  0.00  0.00    +0.000 HD
ATOM     31  H   UNL     1     -12.152  -4.187  15.556  0.00  0.00    +0.000 HD
ATOM     32  H   UNL     1     -10.815  -6.139  14.993  0.00  0.00    +0.000 HD
ATOM     33  H   UNL     1     -10.971  -7.724  17.212  0.00  0.00    +0.000 HD
ATOM     34  H   UNL     1      -9.731  -8.601  18.914  0.00  0.00    +0.000 HD
ATOM     35  H   UNL     1      -8.200  -8.551  18.029  0.00  0.00    +0.000 HD
ENDROOT
BRANCH   1  39
ATOM     36  C   UNL     1      -8.686 -14.441  17.102  0.00  0.00    +0.000 A 
ATOM     37  C   UNL     1      -8.891 -14.774  18.421  0.00  0.00    +0.000 A 
ATOM     38  C   UNL     1      -8.889 -13.555  19.134  0.00  0.00    +0.000 A 
ATOM     39  C   UNL     1      -8.670 -12.541  18.212  0.00  0.00    +0.000 A 
ATOM     40  O   UNL     1      -8.551 -13.094  16.970  0.00  0.00    +0.000 OA
ATOM     41  H   UNL     1      -9.052 -15.768  18.815  0.00  0.00    +0.000 HD
ATOM     42  H   UNL     1      -9.040 -13.406  20.195  0.00  0.00    +0.000 HD
BRANCH  36  43
ATOM     43  C   UNL     1      -8.651 -15.231  15.846  0.00  0.00    +0.000 C 
ATOM     44  H   UNL     1      -7.643 -15.633  15.689  0.00  0.00    +0.000 HD
ATOM     45  H   UNL     1      -9.327 -16.090  15.934  0.00  0.00    +0.000 HD
BRANCH  43  46
ATOM     46  C   UNL     1      -9.060 -14.348  14.669  0.00  0.00    +0.000 C 
ATOM     47  H   UNL     1      -8.907 -14.891  13.728  0.00  0.00    +0.000 HD
ATOM     48  H   UNL     1     -10.131 -14.120  14.729  0.00  0.00    +0.000 HD
BRANCH  46  49
ATOM     49  C   UNL     1      -8.279 -13.046  14.616  0.00  0.00    +0.000 C 
ATOM     50  H   UNL     1      -8.226 -12.607  15.617  0.00  0.00    +0.000 HD
ATOM     51  H   UNL     1      -8.764 -12.323  13.953  0.00  0.00    +0.000 HD
ATOM     52  H   UNL     1      -7.258 -13.213  14.263  0.00  0.00    +0.000 HD
ENDBRANCH  46  49
ENDBRANCH  43  46
ENDBRANCH  36  43
ENDBRANCH   1  39
BRANCH  14  53
ATOM     53  C   UNL     1     -11.753  -2.328  19.818  0.00  0.00    +0.000 C 
ATOM     54  H   UNL     1     -10.909  -1.729  20.177  0.00  0.00    +0.000 HD
ATOM     55  H   UNL     1     -12.163  -2.876  20.672  0.00  0.00    +0.000 HD
ATOM     56  H   UNL     1     -12.511  -1.640  19.431  0.00  0.00    +0.000 HD
ENDBRANCH  14  53
TORSDOF 5
ENDMDL
MODEL 2
REMARK VINA RESULT:   -10.130      2.406      3.919
REMARK INTER + INTRA:         -11.700
REMARK INTER:                 -11.346
REMARK INTRA:                  -0.355
REMARK UNBOUND:                 0.798
REMARK  Name = 
REMARK  5 active torsions:
REMARK  status: ('A' for Active; 'I' for Inactive)
REMARK    1  A    between atoms: C_1  and  C_2
REMARK    2  A    between atoms: C_2  and  C_3
REMARK    3  A    between atoms: C_3  and  C_4
REMARK    4  A    between atoms: C_7  and  C_8
REMARK    5  A    between atoms: C_21  and  C_22
REMARK                            x       y       z     vdW  Elec       q    Type
REMARK                         _______ _______ _______ _____ _____    ______ ____
ROOT
ATOM      1  C   UNL     1     -10.243  -8.875  15.967  0.00  0.00    +0.000 C 
ATOM      2  O   UNL     1     -11.483  -8.867  15.988  0.00  0.00    +0.000 OA
ATOM      3  N   UNL     1      -9.552  -7.703  16.255  0.00  0.00    +0.000 N 
ATOM      4  C   UNL     1      -8.126  -7.439  16.334  0.00  0.00    +0.000 C 
ATOM      5  C   UNL     1      -8.028  -6.272  17.311  0.00  0.00    +0.000 C 
ATOM      6  C   UNL     1      -8.139  -6.708  18.771  0.00  0.00    +0.000 C 
ATOM      7  C   UNL     1      -8.888  -5.588  19.488  0.00  0.00    +0.000 C 
ATOM      8  C   UNL     1      -9.665  -4.799  18.413  0.00  0.00    +0.000 C 
ATOM      9  N   UNL     1     -11.078  -4.784  18.671  0.00  0.00    +0.000 N 
ATOM     10  C   UNL     1     -11.897  -4.033  17.863  0.00  0.00    +0.000 C 
ATOM     11  O   UNL     1     -13.044  -4.377  17.611  0.00  0.00    +0.000 OA
ATOM     12  C   UNL     1     -11.300  -2.792  17.332  0.00  0.00    +0.000 A 
ATOM     13  C   UNL     1     -12.062  -1.916  16.557  0.00  0.00    +0.000 A 
ATOM     14  C   UNL     1     -11.531  -0.677  16.195  0.00  0.00    +0.000 A 
ATOM     15  C   UNL     1     -10.236  -0.343  16.616  0.00  0.00    +0.000 A 
ATOM     16  C   UNL     1      -9.468  -1.246  17.363  0.00  0.00    +0.000 A 
ATOM     17  C   UNL     1      -9.976  -2.504  17.690  0.00  0.00    +0.000 A 
ATOM     18  N   UNL     1      -9.227  -3.403  18.465  0.00  0.00    +0.000 N 
ATOM     19  C   UNL     1      -9.300  -5.459  17.056  0.00  0.00    +0.000 C 
ATOM     20  C   UNL     1     -10.307  -6.495  16.531  0.00  0.00    +0.000 C 
ATOM     21  H   UNL     1      -7.802  -7.135  15.331  0.00  0.00    +0.000 HD
ATOM     22  H   UNL     1      -7.542  -8.297  16.666  0.00  0.00    +0.000 HD
ATOM     23  H   UNL     1      -7.120  -5.678  17.161  0.00  0.00    +0.000 HD
ATOM     24  H   UNL     1      -7.149  -6.875  19.209  0.00  0.00    +0.000 HD
ATOM     25  H   UNL     1      -8.695  -7.647  18.873  0.00  0.00    +0.000 HD
ATOM     26  H   UNL     1      -8.164  -4.954  20.017  0.00  0.00    +0.000 HD
ATOM     27  H   UNL     1      -9.544  -6.016  20.254  0.00  0.00    +0.000 HD
ATOM     28  H   UNL     1     -11.520  -5.635  18.993  0.00  0.00    +0.000 HD
ATOM     29  H   UNL     1     -13.075  -2.194  16.274  0.00  0.00    +0.000 HD
ATOM     30  H   UNL     1      -9.821   0.634  16.377  0.00  0.00    +0.000 HD
ATOM     31  H   UNL     1      -8.476  -0.950  17.691  0.00  0.00    +0.000 HD
ATOM     32  H   UNL     1      -8.224  -3.263  18.400  0.00  0.00    +0.000 HD
ATOM     33  H   UNL     1      -9.112  -4.719  16.266  0.00  0.00    +0.000 HD
ATOM     34  H   UNL     1     -10.760  -6.147  15.595  0.00  0.00    +0.000 HD
ATOM     35  H   UNL     1     -11.114  -6.746  17.222  0.00  0.00    +0.000 HD
ENDROOT
BRANCH   1  39
ATOM     36  C   UNL     1      -8.739 -12.130  15.978  0.00  0.00    +0.000 A 
ATOM     37  C   UNL     1      -8.300 -11.740  14.734  0.00  0.00    +0.000 A 
ATOM     38  C   UNL     1      -8.803 -10.436  14.536  0.00  0.00    +0.000 A 
ATOM     39  C   UNL     1      -9.534 -10.101  15.667  0.00  0.00    +0.000 A 
ATOM     40  O   UNL     1      -9.485 -11.145  16.546  0.00  0.00    +0.000 OA
ATOM     41  H   UNL     1      -7.671 -12.313  14.066  0.00  0.00    +0.000 HD
ATOM     42  H   UNL     1      -8.652  -9.788  13.681  0.00  0.00    +0.000 HD
BRANCH  36  43
ATOM     43  C   UNL     1      -8.510 -13.340  16.806  0.00  0.00    +0.000 C 
ATOM     44  H   UNL     1      -9.284 -14.086  16.596  0.00  0.00    +0.000 HD
ATOM     45  H   UNL     1      -7.548 -13.792  16.535  0.00  0.00    +0.000 HD
BRANCH  43  46
ATOM     46  C   UNL     1      -8.524 -12.963  18.287  0.00  0.00    +0.000 C 
ATOM     47  H   UNL     1      -7.532 -12.604  18.587  0.00  0.00    +0.000 HD
ATOM     48  H   UNL     1      -9.222 -12.133  18.453  0.00  0.00    +0.000 HD
BRANCH  46  49
ATOM     49  C   UNL     1      -8.916 -14.126  19.181  0.00  0.00    +0.000 C 
ATOM     50  H   UNL     1      -8.099 -14.852  19.221  0.00  0.00    +0.000 HD
ATOM     51  H   UNL     1      -9.805 -14.636  18.798  0.00  0.00    +0.000 HD
ATOM     52  H   UNL     1      -9.121 -13.788  20.201  0.00  0.00    +0.000 HD
ENDBRANCH  46  49
ENDBRANCH  43  46
ENDBRANCH  36  43
ENDBRANCH   1  39
BRANCH  14  53
ATOM     53  C   UNL     1     -12.355   0.309  15.421  0.00  0.00    +0.000 C 
ATOM     54  H   UNL     1     -12.962  -0.190  14.658  0.00  0.00    +0.000 HD
ATOM     55  H   UNL     1     -11.709   1.033  14.916  0.00  0.00    +0.000 HD
ATOM     56  H   UNL     1     -13.035   0.838  16.096  0.00  0.00    +0.000 HD
ENDBRANCH  14  53
TORSDOF 5
ENDMDL
MODEL 3
REMARK VINA RESULT:   -10.121      5.782      9.098
REMARK INTER + INTRA:         -11.689
REMARK INTER:                 -11.347
REMARK INTRA:                  -0.342
REMARK UNBOUND:                 0.798
REMARK  Name = 
REMARK  5 active torsions:
REMARK  status: ('A' for Active; 'I' for Inactive)
REMARK    1  A    between atoms: C_1  and  C_2
REMARK    2  A    between atoms: C_2  and  C_3
REMARK    3  A    between atoms: C_3  and  C_4
REMARK    4  A    between atoms: C_7  and  C_8
REMARK    5  A    between atoms: C_21  and  C_22
REMARK                            x       y       z     vdW  Elec       q    Type
REMARK                         _______ _______ _______ _____ _____    ______ ____
ROOT
ATOM      1  C   UNL     1      -8.440  -3.637  20.392  0.00  0.00    +0.000 C 
ATOM      2  O   UNL     1      -9.246  -3.071  19.639  0.00  0.00    +0.000 OA
ATOM      3  N   UNL     1      -8.073  -3.016  21.581  0.00  0.00    +0.000 N 
ATOM      4  C   UNL     1      -7.190  -3.458  22.646  0.00  0.00    +0.000 C 
ATOM      5  C   UNL     1      -7.724  -2.738  23.880  0.00  0.00    +0.000 C 
ATOM      6  C   UNL     1      -8.959  -3.412  24.474  0.00  0.00    +0.000 C 
ATOM      7  C   UNL     1      -9.842  -2.285  25.002  0.00  0.00    +0.000 C 
ATOM      8  C   UNL     1      -9.422  -0.996  24.264  0.00  0.00    +0.000 C 
ATOM      9  N   UNL     1     -10.517  -0.402  23.549  0.00  0.00    +0.000 N 
ATOM     10  C   UNL     1     -10.331   0.809  22.928  0.00  0.00    +0.000 C 
ATOM     11  O   UNL     1     -10.914   1.098  21.892  0.00  0.00    +0.000 OA
ATOM     12  C   UNL     1      -9.392   1.729  23.598  0.00  0.00    +0.000 A 
ATOM     13  C   UNL     1      -9.179   3.014  23.095  0.00  0.00    +0.000 A 
ATOM     14  C   UNL     1      -8.411   3.922  23.825  0.00  0.00    +0.000 A 
ATOM     15  C   UNL     1      -7.864   3.517  25.051  0.00  0.00    +0.000 A 
ATOM     16  C   UNL     1      -8.054   2.213  25.528  0.00  0.00    +0.000 A 
ATOM     17  C   UNL     1      -8.784   1.287  24.781  0.00  0.00    +0.000 A 
ATOM     18  N   UNL     1      -9.008  -0.011  25.265  0.00  0.00    +0.000 N 
ATOM     19  C   UNL     1      -8.240  -1.401  23.343  0.00  0.00    +0.000 C 
ATOM     20  C   UNL     1      -8.613  -1.704  21.882  0.00  0.00    +0.000 C 
ATOM     21  H   UNL     1      -6.183  -3.103  22.395  0.00  0.00    +0.000 HD
ATOM     22  H   UNL     1      -7.178  -4.540  22.781  0.00  0.00    +0.000 HD
ATOM     23  H   UNL     1      -6.957  -2.605  24.651  0.00  0.00    +0.000 HD
ATOM     24  H   UNL     1      -8.682  -4.112  25.270  0.00  0.00    +0.000 HD
ATOM     25  H   UNL     1      -9.509  -3.989  23.721  0.00  0.00    +0.000 HD
ATOM     26  H   UNL     1      -9.703  -2.198  26.087  0.00  0.00    +0.000 HD
ATOM     27  H   UNL     1     -10.896  -2.537  24.842  0.00  0.00    +0.000 HD
ATOM     28  H   UNL     1     -11.150  -1.008  23.043  0.00  0.00    +0.000 HD
ATOM     29  H   UNL     1      -9.644   3.305  22.156  0.00  0.00    +0.000 HD
ATOM     30  H   UNL     1      -7.295   4.223  25.653  0.00  0.00    +0.000 HD
ATOM     31  H   UNL     1      -7.634   1.936  26.490  0.00  0.00    +0.000 HD
ATOM     32  H   UNL     1      -8.301  -0.331  25.919  0.00  0.00    +0.000 HD
ATOM     33  H   UNL     1      -7.428  -0.662  23.352  0.00  0.00    +0.000 HD
ATOM     34  H   UNL     1      -8.146  -0.974  21.210  0.00  0.00    +0.000 HD
ATOM     35  H   UNL     1      -9.684  -1.718  21.672  0.00  0.00    +0.000 HD
ENDROOT
BRANCH   1  39
ATOM     36  C   UNL     1      -7.878  -7.122  19.764  0.00  0.00    +0.000 A 
ATOM     37  C   UNL     1      -6.633  -6.674  19.385  0.00  0.00    +0.000 A 
ATOM     38  C   UNL     1      -6.652  -5.274  19.568  0.00  0.00    +0.000 A 
ATOM     39  C   UNL     1      -7.913  -4.939  20.039  0.00  0.00    +0.000 A 
ATOM     40  O   UNL     1      -8.656  -6.078  20.159  0.00  0.00    +0.000 OA
ATOM     41  H   UNL     1      -5.807  -7.284  19.047  0.00  0.00    +0.000 HD
ATOM     42  H   UNL     1      -5.847  -4.571  19.396  0.00  0.00    +0.000 HD
BRANCH  36  43
ATOM     43  C   UNL     1      -8.483  -8.472  19.879  0.00  0.00    +0.000 C 
ATOM     44  H   UNL     1      -7.739  -9.180  20.265  0.00  0.00    +0.000 HD
ATOM     45  H   UNL     1      -9.304  -8.445  20.605  0.00  0.00    +0.000 HD
BRANCH  43  46
ATOM     46  C   UNL     1      -8.992  -8.928  18.513  0.00  0.00    +0.000 C 
ATOM     47  H   UNL     1     -10.065  -8.718  18.428  0.00  0.00    +0.000 HD
ATOM     48  H   UNL     1      -8.496  -8.355  17.721  0.00  0.00    +0.000 HD
BRANCH  46  49
ATOM     49  C   UNL     1      -8.762 -10.410  18.269  0.00  0.00    +0.000 C 
ATOM     50  H   UNL     1      -7.790 -10.558  17.789  0.00  0.00    +0.000 HD
ATOM     51  H   UNL     1      -9.532 -10.826  17.612  0.00  0.00    +0.000 HD
ATOM     52  H   UNL     1      -8.766 -10.969  19.209  0.00  0.00    +0.000 HD
ENDBRANCH  46  49
ENDBRANCH  43  46
ENDBRANCH  36  43
ENDBRANCH   1  39
BRANCH  14  53
ATOM     53  C   UNL     1      -8.225   5.328  23.339  0.00  0.00    +0.000 C 
ATOM     54  H   UNL     1      -8.517   6.057  24.103  0.00  0.00    +0.000 HD
ATOM     55  H   UNL     1      -8.839   5.508  22.451  0.00  0.00    +0.000 HD
ATOM     56  H   UNL     1      -7.172   5.502  23.095  0.00  0.00    +0.000 HD
ENDBRANCH  14  53
TORSDOF 5
ENDMDL
MODEL 4
REMARK VINA RESULT:    -9.980      2.364      4.203
REMARK INTER + INTRA:         -11.515
REMARK INTER:                 -11.369
REMARK INTRA:                  -0.146
REMARK UNBOUND:                 0.798
REMARK  Name = 
REMARK  5 active torsions:
REMARK  status: ('A' for Active; 'I' for Inactive)
REMARK    1  A    between atoms: C_1  and  C_2
REMARK    2  A    between atoms: C_2  and  C_3
REMARK    3  A    between atoms: C_3  and  C_4
REMARK    4  A    between atoms: C_7  and  C_8
REMARK    5  A    between atoms: C_21  and  C_22
REMARK                            x       y       z     vdW  Elec       q    Type
REMARK                         _______ _______ _______ _____ _____    ______ ____
ROOT
ATOM      1  C   UNL     1      -8.853  -7.788  17.735  0.00  0.00    +0.000 C 
ATOM      2  O   UNL     1      -7.724  -7.661  18.233  0.00  0.00    +0.000 OA
ATOM      3  N   UNL     1      -9.818  -6.818  17.985  0.00  0.00    +0.000 N 
ATOM      4  C   UNL     1     -11.186  -6.699  17.512  0.00  0.00    +0.000 C 
ATOM      5  C   UNL     1     -11.449  -5.197  17.542  0.00  0.00    +0.000 C 
ATOM      6  C   UNL     1     -10.853  -4.465  16.341  0.00  0.00    +0.000 C 
ATOM      7  C   UNL     1     -10.392  -3.107  16.862  0.00  0.00    +0.000 C 
ATOM      8  C   UNL     1     -10.212  -3.244  18.390  0.00  0.00    +0.000 C 
ATOM      9  N   UNL     1      -8.874  -2.930  18.806  0.00  0.00    +0.000 N 
ATOM     10  C   UNL     1      -8.581  -2.902  20.147  0.00  0.00    +0.000 C 
ATOM     11  O   UNL     1      -7.480  -3.223  20.573  0.00  0.00    +0.000 OA
ATOM     12  C   UNL     1      -9.678  -2.453  21.027  0.00  0.00    +0.000 A 
ATOM     13  C   UNL     1      -9.471  -2.318  22.401  0.00  0.00    +0.000 A 
ATOM     14  C   UNL     1     -10.468  -1.746  23.195  0.00  0.00    +0.000 A 
ATOM     15  C   UNL     1     -11.660  -1.325  22.589  0.00  0.00    +0.000 A 
ATOM     16  C   UNL     1     -11.869  -1.500  21.215  0.00  0.00    +0.000 A 
ATOM     17  C   UNL     1     -10.895  -2.111  20.424  0.00  0.00    +0.000 A 
ATOM     18  N   UNL     1     -11.081  -2.261  19.040  0.00  0.00    +0.000 N 
ATOM     19  C   UNL     1     -10.635  -4.696  18.738  0.00  0.00    +0.000 C 
ATOM     20  C   UNL     1      -9.486  -5.709  18.859  0.00  0.00    +0.000 C 
ATOM     21  H   UNL     1     -11.822  -7.220  18.238  0.00  0.00    +0.000 HD
ATOM     22  H   UNL     1     -11.340  -7.119  16.518  0.00  0.00    +0.000 HD
ATOM     23  H   UNL     1     -12.514  -4.962  17.639  0.00  0.00    +0.000 HD
ATOM     24  H   UNL     1     -11.590  -4.358  15.538  0.00  0.00    +0.000 HD
ATOM     25  H   UNL     1      -9.998  -5.006  15.918  0.00  0.00    +0.000 HD
ATOM     26  H   UNL     1     -11.144  -2.350  16.605  0.00  0.00    +0.000 HD
ATOM     27  H   UNL     1      -9.467  -2.812  16.354  0.00  0.00    +0.000 HD
ATOM     28  H   UNL     1      -8.102  -3.265  18.244  0.00  0.00    +0.000 HD
ATOM     29  H   UNL     1      -8.522  -2.627  22.834  0.00  0.00    +0.000 HD
ATOM     30  H   UNL     1     -12.432  -0.841  23.185  0.00  0.00    +0.000 HD
ATOM     31  H   UNL     1     -12.795  -1.145  20.772  0.00  0.00    +0.000 HD
ATOM     32  H   UNL     1     -12.056  -2.294  18.761  0.00  0.00    +0.000 HD
ATOM     33  H   UNL     1     -11.248  -4.748  19.648  0.00  0.00    +0.000 HD
ATOM     34  H   UNL     1      -9.416  -6.086  19.887  0.00  0.00    +0.000 HD
ATOM     35  H   UNL     1      -8.503  -5.330  18.573  0.00  0.00    +0.000 HD
ENDROOT
BRANCH   1  39
ATOM     36  C   UNL     1      -9.207 -11.025  16.233  0.00  0.00    +0.000 A 
ATOM     37  C   UNL     1      -9.784 -10.298  15.217  0.00  0.00    +0.000 A 
ATOM     38  C   UNL     1      -9.737  -8.948  15.630  0.00  0.00    +0.000 A 
ATOM     39  C   UNL     1      -9.143  -8.923  16.884  0.00  0.00    +0.000 A 
ATOM     40  O   UNL     1      -8.818 -10.200  17.242  0.00  0.00    +0.000 OA
ATOM     41  H   UNL     1     -10.165 -10.689  14.284  0.00  0.00    +0.000 HD
ATOM     42  H   UNL     1     -10.078  -8.075  15.088  0.00  0.00    +0.000 HD
BRANCH  36  43
ATOM     43  C   UNL     1      -8.885 -12.464  16.400  0.00  0.00    +0.000 C 
ATOM     44  H   UNL     1      -8.087 -12.582  17.142  0.00  0.00    +0.000 HD
ATOM     45  H   UNL     1      -9.764 -12.993  16.787  0.00  0.00    +0.000 HD
BRANCH  43  46
ATOM     46  C   UNL     1      -8.454 -13.055  15.059  0.00  0.00    +0.000 C 
ATOM     47  H   UNL     1      -8.929 -12.501  14.240  0.00  0.00    +0.000 HD
ATOM     48  H   UNL     1      -7.371 -12.936  14.931  0.00  0.00    +0.000 HD
BRANCH  46  49
ATOM     49  C   UNL     1      -8.810 -14.525  14.927  0.00  0.00    +0.000 C 
ATOM     50  H   UNL     1      -9.856 -14.625  14.622  0.00  0.00    +0.000 HD
ATOM     51  H   UNL     1      -8.683 -15.048  15.880  0.00  0.00    +0.000 HD
ATOM     52  H   UNL     1      -8.188 -15.016  14.174  0.00  0.00    +0.000 HD
ENDBRANCH  46  49
ENDBRANCH  43  46
ENDBRANCH  36  43
ENDBRANCH   1  39
BRANCH  14  53
ATOM     53  C   UNL     1     -10.243  -1.528  24.661  0.00  0.00    +0.000 C 
ATOM     54  H   UNL     1      -9.224  -1.180  24.861  0.00  0.00    +0.000 HD
ATOM     55  H   UNL     1     -10.394  -2.460  25.213  0.00  0.00    +0.000 HD
ATOM     56  H   UNL     1     -10.936  -0.768  25.036  0.00  0.00    +0.000 HD
ENDBRANCH  14  53
TORSDOF 5
ENDMDL
MODEL 5
REMARK VINA RESULT:    -9.957      2.829      4.660
REMARK INTER + INTRA:         -11.487
REMARK INTER:                 -11.259
REMARK INTRA:                  -0.228
REMARK UNBOUND:                 0.798
REMARK  Name = 
REMARK  5 active torsions:
REMARK  status: ('A' for Active; 'I' for Inactive)
REMARK    1  A    between atoms: C_1  and  C_2
REMARK    2  A    between atoms: C_2  and  C_3
REMARK    3  A    between atoms: C_3  and  C_4
REMARK    4  A    between atoms: C_7  and  C_8
REMARK    5  A    between atoms: C_21  and  C_22
REMARK                            x       y       z     vdW  Elec       q    Type
REMARK                         _______ _______ _______ _____ _____    ______ ____
ROOT
ATOM      1  C   UNL     1      -9.111  -6.084  18.851  0.00  0.00    +0.000 C 
ATOM      2  O   UNL     1      -8.320  -5.290  19.380  0.00  0.00    +0.000 OA
ATOM      3  N   UNL     1     -10.104  -5.595  18.010  0.00  0.00    +0.000 N 
ATOM      4  C   UNL     1     -11.125  -6.289  17.245  0.00  0.00    +0.000 C 
ATOM      5  C   UNL     1     -11.400  -5.352  16.074  0.00  0.00    +0.000 C 
ATOM      6  C   UNL     1     -10.349  -5.455  14.971  0.00  0.00    +0.000 C 
ATOM      7  C   UNL     1     -10.187  -4.045  14.410  0.00  0.00    +0.000 C 
ATOM      8  C   UNL     1     -10.697  -3.066  15.489  0.00  0.00    +0.000 C 
ATOM      9  N   UNL     1      -9.684  -2.130  15.889  0.00  0.00    +0.000 N 
ATOM     10  C   UNL     1     -10.012  -1.124  16.765  0.00  0.00    +0.000 C 
ATOM     11  O   UNL     1      -9.206  -0.686  17.575  0.00  0.00    +0.000 OA
ATOM     12  C   UNL     1     -11.392  -0.612  16.655  0.00  0.00    +0.000 A 
ATOM     13  C   UNL     1     -11.814   0.458  17.447  0.00  0.00    +0.000 A 
ATOM     14  C   UNL     1     -13.068   1.030  17.221  0.00  0.00    +0.000 A 
ATOM     15  C   UNL     1     -13.878   0.509  16.202  0.00  0.00    +0.000 A 
ATOM     16  C   UNL     1     -13.457  -0.588  15.439  0.00  0.00    +0.000 A 
ATOM     17  C   UNL     1     -12.225  -1.192  15.689  0.00  0.00    +0.000 A 
ATOM     18  N   UNL     1     -11.780  -2.271  14.908  0.00  0.00    +0.000 N 
ATOM     19  C   UNL     1     -11.205  -3.951  16.658  0.00  0.00    +0.000 C 
ATOM     20  C   UNL     1     -10.210  -4.162  17.811  0.00  0.00    +0.000 C 
ATOM     21  H   UNL     1     -12.008  -6.373  17.892  0.00  0.00    +0.000 HD
ATOM     22  H   UNL     1     -10.819  -7.281  16.910  0.00  0.00    +0.000 HD
ATOM     23  H   UNL     1     -12.403  -5.490  15.656  0.00  0.00    +0.000 HD
ATOM     24  H   UNL     1     -10.659  -6.164  14.195  0.00  0.00    +0.000 HD
ATOM     25  H   UNL     1      -9.386  -5.810  15.359  0.00  0.00    +0.000 HD
ATOM     26  H   UNL     1     -10.762  -3.962  13.479  0.00  0.00    +0.000 HD
ATOM     27  H   UNL     1      -9.138  -3.872  14.145  0.00  0.00    +0.000 HD
ATOM     28  H   UNL     1      -8.738  -2.465  16.015  0.00  0.00    +0.000 HD
ATOM     29  H   UNL     1     -11.148   0.857  18.208  0.00  0.00    +0.000 HD
ATOM     30  H   UNL     1     -14.842   0.967  15.986  0.00  0.00    +0.000 HD
ATOM     31  H   UNL     1     -14.099  -0.955  14.643  0.00  0.00    +0.000 HD
ATOM     32  H   UNL     1     -12.531  -2.807  14.486  0.00  0.00    +0.000 HD
ATOM     33  H   UNL     1     -12.155  -3.591  17.076  0.00  0.00    +0.000 HD
ATOM     34  H   UNL     1     -10.593  -3.711  18.734  0.00  0.00    +0.000 HD
ATOM     35  H   UNL     1      -9.208  -3.766  17.634  0.00  0.00    +0.000 HD
ENDROOT
BRANCH   1  39
ATOM     36  C   UNL     1      -8.873  -9.656  18.638  0.00  0.00    +0.000 A 
ATOM     37  C   UNL     1      -8.750  -9.555  20.005  0.00  0.00    +0.000 A 
ATOM     38  C   UNL     1      -8.825  -8.176  20.300  0.00  0.00    +0.000 A 
ATOM     39  C   UNL     1      -8.978  -7.506  19.095  0.00  0.00    +0.000 A 
ATOM     40  O   UNL     1      -9.010  -8.422  18.083  0.00  0.00    +0.000 OA
ATOM     41  H   UNL     1      -8.649 -10.375  20.703  0.00  0.00    +0.000 HD
ATOM     42  H   UNL     1      -8.787  -7.703  21.273  0.00  0.00    +0.000 HD
BRANCH  36  43
ATOM     43  C   UNL     1      -8.946 -10.807  17.705  0.00  0.00    +0.000 C 
ATOM     44  H   UNL     1      -7.934 -11.160  17.470  0.00  0.00    +0.000 HD
ATOM     45  H   UNL     1      -9.470 -11.639  18.190  0.00  0.00    +0.000 HD
BRANCH  43  46
ATOM     46  C   UNL     1      -9.672 -10.391  16.427  0.00  0.00    +0.000 C 
ATOM     47  H   UNL     1     -10.745 -10.593  16.529  0.00  0.00    +0.000 HD
ATOM     48  H   UNL     1      -9.569  -9.309  16.276  0.00  0.00    +0.000 HD
BRANCH  46  49
ATOM     49  C   UNL     1      -9.152 -11.115  15.197  0.00  0.00    +0.000 C 
ATOM     50  H   UNL     1      -9.861 -10.995  14.372  0.00  0.00    +0.000 HD
ATOM     51  H   UNL     1      -9.034 -12.185  15.390  0.00  0.00    +0.000 HD
ATOM     52  H   UNL     1      -8.188 -10.709  14.879  0.00  0.00    +0.000 HD
ENDBRANCH  46  49
ENDBRANCH  43  46
ENDBRANCH  36  43
ENDBRANCH   1  39
BRANCH  14  53
ATOM     53  C   UNL     1     -13.516   2.222  18.012  0.00  0.00    +0.000 C 
ATOM     54  H   UNL     1     -14.608   2.306  18.024  0.00  0.00    +0.000 HD
ATOM     55  H   UNL     1     -13.112   3.141  17.578  0.00  0.00    +0.000 HD
ATOM     56  H   UNL     1     -13.176   2.131  19.049  0.00  0.00    +0.000 HD
ENDBRANCH  14  53
TORSDOF 5
ENDMDL
MODEL 6
REMARK VINA RESULT:    -9.839      2.977      4.388
REMARK INTER + INTRA:         -11.341
REMARK INTER:                 -11.366
REMARK INTRA:                   0.024
REMARK UNBOUND:                 0.798
REMARK  Name = 
REMARK  5 active torsions:
REMARK  status: ('A' for Active; 'I' for Inactive)
REMARK    1  A    between atoms: C_1  and  C_2
REMARK    2  A    between atoms: C_2  and  C_3
REMARK    3  A    between atoms: C_3  and  C_4
REMARK    4  A    between atoms: C_7  and  C_8
REMARK    5  A    between atoms: C_21  and  C_22
REMARK                            x       y       z     vdW  Elec       q    Type
REMARK                         _______ _______ _______ _____ _____    ______ ____
ROOT
ATOM      1  C   UNL     1      -9.760  -8.720  16.330  0.00  0.00    +0.000 C 
ATOM      2  O   UNL     1     -10.558  -8.890  15.397  0.00  0.00    +0.000 OA
ATOM      3  N   UNL     1      -9.376  -7.426  16.667  0.00  0.00    +0.000 N 
ATOM      4  C   UNL     1      -8.498  -6.942  17.718  0.00  0.00    +0.000 C 
ATOM      5  C   UNL     1      -9.013  -5.535  18.000  0.00  0.00    +0.000 C 
ATOM      6  C   UNL     1     -10.259  -5.525  18.884  0.00  0.00    +0.000 C 
ATOM      7  C   UNL     1     -11.118  -4.365  18.388  0.00  0.00    +0.000 C 
ATOM      8  C   UNL     1     -10.676  -4.060  16.941  0.00  0.00    +0.000 C 
ATOM      9  N   UNL     1     -11.762  -4.178  16.008  0.00  0.00    +0.000 N 
ATOM     10  C   UNL     1     -11.555  -3.834  14.695  0.00  0.00    +0.000 C 
ATOM     11  O   UNL     1     -12.137  -4.403  13.781  0.00  0.00    +0.000 OA
ATOM     12  C   UNL     1     -10.596  -2.735  14.469  0.00  0.00    +0.000 A 
ATOM     13  C   UNL     1     -10.361  -2.255  13.180  0.00  0.00    +0.000 A 
ATOM     14  C   UNL     1      -9.573  -1.117  13.001  0.00  0.00    +0.000 A 
ATOM     15  C   UNL     1      -9.029  -0.484  14.128  0.00  0.00    +0.000 A 
ATOM     16  C   UNL     1      -9.242  -0.997  15.414  0.00  0.00    +0.000 A 
ATOM     17  C   UNL     1      -9.992  -2.160  15.595  0.00  0.00    +0.000 A 
ATOM     18  N   UNL     1     -10.239  -2.664  16.882  0.00  0.00    +0.000 N 
ATOM     19  C   UNL     1      -9.506  -5.034  16.640  0.00  0.00    +0.000 C 
ATOM     20  C   UNL     1      -9.890  -6.317  15.886  0.00  0.00    +0.000 C 
ATOM     21  H   UNL     1      -7.485  -6.909  17.298  0.00  0.00    +0.000 HD
ATOM     22  H   UNL     1      -8.505  -7.565  18.613  0.00  0.00    +0.000 HD
ATOM     23  H   UNL     1      -8.241  -4.885  18.425  0.00  0.00    +0.000 HD
ATOM     24  H   UNL     1      -9.992  -5.404  19.940  0.00  0.00    +0.000 HD
ATOM     25  H   UNL     1     -10.822  -6.461  18.804  0.00  0.00    +0.000 HD
ATOM     26  H   UNL     1     -10.973  -3.502  19.050  0.00  0.00    +0.000 HD
ATOM     27  H   UNL     1     -12.177  -4.636  18.457  0.00  0.00    +0.000 HD
ATOM     28  H   UNL     1     -12.409  -4.949  16.114  0.00  0.00    +0.000 HD
ATOM     29  H   UNL     1     -10.824  -2.752  12.330  0.00  0.00    +0.000 HD
ATOM     30  H   UNL     1      -8.444   0.427  14.011  0.00  0.00    +0.000 HD
ATOM     31  H   UNL     1      -8.824  -0.473  16.268  0.00  0.00    +0.000 HD
ATOM     32  H   UNL     1      -9.536  -2.402  17.565  0.00  0.00    +0.000 HD
ATOM     33  H   UNL     1      -8.679  -4.546  16.106  0.00  0.00    +0.000 HD
ATOM     34  H   UNL     1      -9.412  -6.338  14.899  0.00  0.00    +0.000 HD
ATOM     35  H   UNL     1     -10.962  -6.466  15.743  0.00  0.00    +0.000 HD
ENDROOT
BRANCH   1  39
ATOM     36  C   UNL     1      -8.630 -11.936  17.443  0.00  0.00    +0.000 A 
ATOM     37  C   UNL     1      -8.481 -11.275  18.640  0.00  0.00    +0.000 A 
ATOM     38  C   UNL     1      -8.891  -9.945  18.404  0.00  0.00    +0.000 A 
ATOM     39  C   UNL     1      -9.259  -9.860  17.069  0.00  0.00    +0.000 A 
ATOM     40  O   UNL     1      -9.099 -11.086  16.490  0.00  0.00    +0.000 OA
ATOM     41  H   UNL     1      -8.146 -11.706  19.574  0.00  0.00    +0.000 HD
ATOM     42  H   UNL     1      -8.935  -9.128  19.113  0.00  0.00    +0.000 HD
BRANCH  36  43
ATOM     43  C   UNL     1      -8.446 -13.349  17.029  0.00  0.00    +0.000 C 
ATOM     44  H   UNL     1      -7.511 -13.740  17.448  0.00  0.00    +0.000 HD
ATOM     45  H   UNL     1      -9.259 -13.959  17.440  0.00  0.00    +0.000 HD
BRANCH  43  46
ATOM     46  C   UNL     1      -8.425 -13.443  15.505  0.00  0.00    +0.000 C 
ATOM     47  H   UNL     1      -9.119 -12.708  15.079  0.00  0.00    +0.000 HD
ATOM     48  H   UNL     1      -7.426 -13.186  15.130  0.00  0.00    +0.000 HD
BRANCH  46  49
ATOM     49  C   UNL     1      -8.803 -14.824  15.000  0.00  0.00    +0.000 C 
ATOM     50  H   UNL     1      -9.832 -15.055  15.292  0.00  0.00    +0.000 HD
ATOM     51  H   UNL     1      -8.150 -15.592  15.425  0.00  0.00    +0.000 HD
ATOM     52  H   UNL     1      -8.739 -14.877  13.909  0.00  0.00    +0.000 HD
ENDBRANCH  46  49
ENDBRANCH  43  46
ENDBRANCH  36  43
ENDBRANCH   1  39
BRANCH  14  53
ATOM     53  C   UNL     1      -9.362  -0.543  11.632  0.00  0.00    +0.000 C 
ATOM     54  H   UNL     1     -10.227   0.047  11.309  0.00  0.00    +0.000 HD
ATOM     55  H   UNL     1      -9.209  -1.343  10.902  0.00  0.00    +0.000 HD
ATOM     56  H   UNL     1      -8.489   0.118  11.635  0.00  0.00    +0.000 HD
ENDBRANCH  14  53
TORSDOF 5
ENDMDL
MODEL 7
REMARK VINA RESULT:    -9.545      3.036      4.976
REMARK INTER + INTRA:         -10.978
REMARK INTER:                 -10.597
REMARK INTRA:                  -0.381
REMARK UNBOUND:                 0.798
REMARK  Name = 
REMARK  5 active torsions:
REMARK  status: ('A' for Active; 'I' for Inactive)
REMARK    1  A    between atoms: C_1  and  C_2
REMARK    2  A    between atoms: C_2  and  C_3
REMARK    3  A    between atoms: C_3  and  C_4
REMARK    4  A    between atoms: C_7  and  C_8
REMARK    5  A    between atoms: C_21  and  C_22
REMARK                            x       y       z     vdW  Elec       q    Type
REMARK                         _______ _______ _______ _____ _____    ______ ____
ROOT
ATOM      1  C   UNL     1     -10.133  -7.296  18.570  0.00  0.00    +0.000 C 
ATOM      2  O   UNL     1     -11.347  -7.211  18.806  0.00  0.00    +0.000 OA
ATOM      3  N   UNL     1      -9.357  -6.142  18.583  0.00  0.00    +0.000 N 
ATOM      4  C   UNL     1      -7.931  -5.957  18.378  0.00  0.00    +0.000 C 
ATOM      5  C   UNL     1      -7.613  -4.691  19.167  0.00  0.00    +0.000 C 
ATOM      6  C   UNL     1      -7.477  -4.944  20.667  0.00  0.00    +0.000 C 
ATOM      7  C   UNL     1      -8.040  -3.705  21.356  0.00  0.00    +0.000 C 
ATOM      8  C   UNL     1      -8.967  -3.003  20.341  0.00  0.00    +0.000 C 
ATOM      9  N   UNL     1     -10.309  -2.872  20.837  0.00  0.00    +0.000 N 
ATOM     10  C   UNL     1     -11.230  -2.174  20.095  0.00  0.00    +0.000 C 
ATOM     11  O   UNL     1     -12.416  -2.475  20.093  0.00  0.00    +0.000 OA
ATOM     12  C   UNL     1     -10.692  -1.042  19.316  0.00  0.00    +0.000 A 
ATOM     13  C   UNL     1     -11.547  -0.219  18.581  0.00  0.00    +0.000 A 
ATOM     14  C   UNL     1     -11.043   0.935  17.977  0.00  0.00    +0.000 A 
ATOM     15  C   UNL     1      -9.682   1.237  18.121  0.00  0.00    +0.000 A 
ATOM     16  C   UNL     1      -8.827   0.383  18.831  0.00  0.00    +0.000 A 
ATOM     17  C   UNL     1      -9.315  -0.794  19.398  0.00  0.00    +0.000 A 
ATOM     18  N   UNL     1      -8.474  -1.639  20.139  0.00  0.00    +0.000 N 
ATOM     19  C   UNL     1      -8.878  -3.839  19.037  0.00  0.00    +0.000 C 
ATOM     20  C   UNL     1     -10.002  -4.866  18.831  0.00  0.00    +0.000 C 
ATOM     21  H   UNL     1      -7.781  -5.794  17.303  0.00  0.00    +0.000 HD
ATOM     22  H   UNL     1      -7.330  -6.804  18.710  0.00  0.00    +0.000 HD
ATOM     23  H   UNL     1      -6.725  -4.174  18.787  0.00  0.00    +0.000 HD
ATOM     24  H   UNL     1      -6.431  -5.118  20.944  0.00  0.00    +0.000 HD
ATOM     25  H   UNL     1      -8.041  -5.829  20.983  0.00  0.00    +0.000 HD
ATOM     26  H   UNL     1      -7.209  -3.058  21.666  0.00  0.00    +0.000 HD
ATOM     27  H   UNL     1      -8.564  -3.999  22.272  0.00  0.00    +0.000 HD
ATOM     28  H   UNL     1     -10.718  -3.651  21.336  0.00  0.00    +0.000 HD
ATOM     29  H   UNL     1     -12.604  -0.467  18.515  0.00  0.00    +0.000 HD
ATOM     30  H   UNL     1      -9.279   2.152  17.691  0.00  0.00    +0.000 HD
ATOM     31  H   UNL     1      -7.781   0.656  18.942  0.00  0.00    +0.000 HD
ATOM     32  H   UNL     1      -7.495  -1.568  19.883  0.00  0.00    +0.000 HD
ATOM     33  H   UNL     1      -8.807  -3.210  18.139  0.00  0.00    +0.000 HD
ATOM     34  H   UNL     1     -10.603  -4.605  17.951  0.00  0.00    +0.000 HD
ATOM     35  H   UNL     1     -10.681  -4.985  19.677  0.00  0.00    +0.000 HD
ENDROOT
BRANCH   1  39
ATOM     36  C   UNL     1      -8.954 -10.377  17.165  0.00  0.00    +0.000 A 
ATOM     37  C   UNL     1      -8.490 -10.581  18.444  0.00  0.00    +0.000 A 
ATOM     38  C   UNL     1      -8.869  -9.438  19.181  0.00  0.00    +0.000 A 
ATOM     39  C   UNL     1      -9.536  -8.590  18.309  0.00  0.00    +0.000 A 
ATOM     40  O   UNL     1      -9.587  -9.177  17.077  0.00  0.00    +0.000 OA
ATOM     41  H   UNL     1      -7.968 -11.456  18.806  0.00  0.00    +0.000 HD
ATOM     42  H   UNL     1      -8.699  -9.238  20.231  0.00  0.00    +0.000 HD
BRANCH  36  43
ATOM     43  C   UNL     1      -8.953 -11.210  15.937  0.00  0.00    +0.000 C 
ATOM     44  H   UNL     1      -9.955 -11.218  15.493  0.00  0.00    +0.000 HD
ATOM     45  H   UNL     1      -8.278 -10.767  15.195  0.00  0.00    +0.000 HD
BRANCH  43  46
ATOM     46  C   UNL     1      -8.512 -12.633  16.278  0.00  0.00    +0.000 C 
ATOM     47  H   UNL     1      -7.480 -12.621  16.650  0.00  0.00    +0.000 HD
ATOM     48  H   UNL     1      -9.134 -13.031  17.089  0.00  0.00    +0.000 HD
BRANCH  46  49
ATOM     49  C   UNL     1      -8.592 -13.570  15.086  0.00  0.00    +0.000 C 
ATOM     50  H   UNL     1      -9.576 -13.484  14.615  0.00  0.00    +0.000 HD
ATOM     51  H   UNL     1      -8.453 -14.611  15.393  0.00  0.00    +0.000 HD
ATOM     52  H   UNL     1      -7.833 -13.323  14.338  0.00  0.00    +0.000 HD
ENDBRANCH  46  49
ENDBRANCH  43  46
ENDBRANCH  36  43
ENDBRANCH   1  39
BRANCH  14  53
ATOM     53  C   UNL     1     -11.954   1.870  17.241  0.00  0.00    +0.000 C 
ATOM     54  H   UNL     1     -12.702   2.310  17.910  0.00  0.00    +0.000 HD
ATOM     55  H   UNL     1     -12.487   1.336  16.447  0.00  0.00    +0.000 HD
ATOM     56  H   UNL     1     -11.375   2.688  16.802  0.00  0.00    +0.000 HD
ENDBRANCH  14  53
TORSDOF 5
ENDMDL
MODEL 8
REMARK VINA RESULT:    -9.279      2.852      4.867
REMARK INTER + INTRA:         -10.651
REMARK INTER:                 -10.797
REMARK INTRA:                   0.145
REMARK UNBOUND:                 0.798
REMARK  Name = 
REMARK  5 active torsions:
REMARK  status: ('A' for Active; 'I' for Inactive)
REMARK    1  A    between atoms: C_1  and  C_2
REMARK    2  A    between atoms: C_2  and  C_3
REMARK    3  A    between atoms: C_3  and  C_4
REMARK    4  A    between atoms: C_7  and  C_8
REMARK    5  A    between atoms: C_21  and  C_22
REMARK                            x       y       z     vdW  Elec       q    Type
REMARK                         _______ _______ _______ _____ _____    ______ ____
ROOT
ATOM      1  C   UNL     1      -9.617  -6.381  17.630  0.00  0.00    +0.000 C 
ATOM      2  O   UNL     1      -8.849  -5.895  18.473  0.00  0.00    +0.000 OA
ATOM      3  N   UNL     1     -10.448  -5.537  16.901  0.00  0.00    +0.000 N 
ATOM      4  C   UNL     1     -11.404  -5.828  15.847  0.00  0.00    +0.000 C 
ATOM      5  C   UNL     1     -11.448  -4.538  15.034  0.00  0.00    +0.000 C 
ATOM      6  C   UNL     1     -10.267  -4.399  14.075  0.00  0.00    +0.000 C 
ATOM      7  C   UNL     1      -9.928  -2.912  14.037  0.00  0.00    +0.000 C 
ATOM      8  C   UNL     1     -10.507  -2.281  15.322  0.00  0.00    +0.000 C 
ATOM      9  N   UNL     1      -9.491  -1.645  16.115  0.00  0.00    +0.000 N 
ATOM     10  C   UNL     1      -9.862  -0.945  17.237  0.00  0.00    +0.000 C 
ATOM     11  O   UNL     1      -9.143  -0.886  18.226  0.00  0.00    +0.000 OA
ATOM     12  C   UNL     1     -11.172  -0.271  17.161  0.00  0.00    +0.000 A 
ATOM     13  C   UNL     1     -11.619   0.527  18.216  0.00  0.00    +0.000 A 
ATOM     14  C   UNL     1     -12.785   1.280  18.065  0.00  0.00    +0.000 A 
ATOM     15  C   UNL     1     -13.486   1.211  16.852  0.00  0.00    +0.000 A 
ATOM     16  C   UNL     1     -13.046   0.378  15.815  0.00  0.00    +0.000 A 
ATOM     17  C   UNL     1     -11.906  -0.411  15.976  0.00  0.00    +0.000 A 
ATOM     18  N   UNL     1     -11.440  -1.223  14.931  0.00  0.00    +0.000 N 
ATOM     19  C   UNL     1     -11.232  -3.432  16.069  0.00  0.00    +0.000 C 
ATOM     20  C   UNL     1     -10.421  -4.114  17.182  0.00  0.00    +0.000 C 
ATOM     21  H   UNL     1     -12.370  -6.014  16.334  0.00  0.00    +0.000 HD
ATOM     22  H   UNL     1     -11.128  -6.686  15.233  0.00  0.00    +0.000 HD
ATOM     23  H   UNL     1     -12.392  -4.419  14.492  0.00  0.00    +0.000 HD
ATOM     24  H   UNL     1     -10.519  -4.780  13.080  0.00  0.00    +0.000 HD
ATOM     25  H   UNL     1      -9.394  -4.967  14.421  0.00  0.00    +0.000 HD
ATOM     26  H   UNL     1     -10.363  -2.468  13.133  0.00  0.00    +0.000 HD
ATOM     27  H   UNL     1      -8.843  -2.783  13.956  0.00  0.00    +0.000 HD
ATOM     28  H   UNL     1      -8.598  -2.109  16.220  0.00  0.00    +0.000 HD
ATOM     29  H   UNL     1     -11.035   0.581  19.132  0.00  0.00    +0.000 HD
ATOM     30  H   UNL     1     -14.375   1.820  16.702  0.00  0.00    +0.000 HD
ATOM     31  H   UNL     1     -13.599   0.362  14.880  0.00  0.00    +0.000 HD
ATOM     32  H   UNL     1     -12.163  -1.506  14.278  0.00  0.00    +0.000 HD
ATOM     33  H   UNL     1     -12.201  -3.120  16.482  0.00  0.00    +0.000 HD
ATOM     34  H   UNL     1     -10.892  -3.944  18.158  0.00  0.00    +0.000 HD
ATOM     35  H   UNL     1      -9.378  -3.799  17.253  0.00  0.00    +0.000 HD
ENDROOT
BRANCH   1  39
ATOM     36  C   UNL     1      -9.160  -9.937  17.734  0.00  0.00    +0.000 A 
ATOM     37  C   UNL     1      -9.918  -9.892  16.586  0.00  0.00    +0.000 A 
ATOM     38  C   UNL     1     -10.209  -8.528  16.366  0.00  0.00    +0.000 A 
ATOM     39  C   UNL     1      -9.622  -7.811  17.398  0.00  0.00    +0.000 A 
ATOM     40  O   UNL     1      -8.978  -8.683  18.229  0.00  0.00    +0.000 OA
ATOM     41  H   UNL     1     -10.201 -10.735  15.971  0.00  0.00    +0.000 HD
ATOM     42  H   UNL     1     -10.769  -8.093  15.548  0.00  0.00    +0.000 HD
BRANCH  36  43
ATOM     43  C   UNL     1      -8.480 -11.036  18.463  0.00  0.00    +0.000 C 
ATOM     44  H   UNL     1      -7.431 -10.771  18.638  0.00  0.00    +0.000 HD
ATOM     45  H   UNL     1      -8.946 -11.165  19.447  0.00  0.00    +0.000 HD
BRANCH  43  46
ATOM     46  C   UNL     1      -8.574 -12.328  17.654  0.00  0.00    +0.000 C 
ATOM     47  H   UNL     1      -9.385 -12.247  16.920  0.00  0.00    +0.000 HD
ATOM     48  H   UNL     1      -7.649 -12.479  17.085  0.00  0.00    +0.000 HD
BRANCH  46  49
ATOM     49  C   UNL     1      -8.823 -13.546  18.527  0.00  0.00    +0.000 C 
ATOM     50  H   UNL     1      -7.878 -13.888  18.960  0.00  0.00    +0.000 HD
ATOM     51  H   UNL     1      -9.246 -14.370  17.943  0.00  0.00    +0.000 HD
ATOM     52  H   UNL     1      -9.508 -13.312  19.346  0.00  0.00    +0.000 HD
ENDBRANCH  46  49
ENDBRANCH  43  46
ENDBRANCH  36  43
ENDBRANCH   1  39
BRANCH  14  53
ATOM     53  C   UNL     1     -13.248   2.196  19.158  0.00  0.00    +0.000 C 
ATOM     54  H   UNL     1     -13.411   3.213  18.784  0.00  0.00    +0.000 HD
ATOM     55  H   UNL     1     -12.501   2.247  19.955  0.00  0.00    +0.000 HD
ATOM     56  H   UNL     1     -14.196   1.836  19.571  0.00  0.00    +0.000 HD
ENDBRANCH  14  53
TORSDOF 5
ENDMDL
MODEL 9
REMARK VINA RESULT:    -9.113      2.876      5.357
REMARK INTER + INTRA:         -10.446
REMARK INTER:                 -10.617
REMARK INTRA:                   0.170
REMARK UNBOUND:                 0.798
REMARK  Name = 
REMARK  5 active torsions:
REMARK  status: ('A' for Active; 'I' for Inactive)
REMARK    1  A    between atoms: C_1  and  C_2
REMARK    2  A    between atoms: C_2  and  C_3
REMARK    3  A    between atoms: C_3  and  C_4
REMARK    4  A    between atoms: C_7  and  C_8
REMARK    5  A    between atoms: C_21  and  C_22
REMARK                            x       y       z     vdW  Elec       q    Type
REMARK                         _______ _______ _______ _____ _____    ______ ____
ROOT
ATOM      1  C   UNL     1      -9.972  -6.153  18.118  0.00  0.00    +0.000 C 
ATOM      2  O   UNL     1      -9.125  -6.054  19.017  0.00  0.00    +0.000 OA
ATOM      3  N   UNL     1     -10.714  -5.033  17.757  0.00  0.00    +0.000 N 
ATOM      4  C   UNL     1     -11.729  -4.860  16.733  0.00  0.00    +0.000 C 
ATOM      5  C   UNL     1     -11.637  -3.379  16.381  0.00  0.00    +0.000 C 
ATOM      6  C   UNL     1     -10.477  -3.063  15.438  0.00  0.00    +0.000 C 
ATOM      7  C   UNL     1      -9.958  -1.690  15.855  0.00  0.00    +0.000 C 
ATOM      8  C   UNL     1     -10.415  -1.454  17.311  0.00  0.00    +0.000 C 
ATOM      9  N   UNL     1      -9.305  -1.225  18.194  0.00  0.00    +0.000 N 
ATOM     10  C   UNL     1      -9.552  -0.893  19.504  0.00  0.00    +0.000 C 
ATOM     11  O   UNL     1      -8.802  -1.237  20.407  0.00  0.00    +0.000 OA
ATOM     12  C   UNL     1     -10.771  -0.094  19.738  0.00  0.00    +0.000 A 
ATOM     13  C   UNL     1     -11.083   0.359  21.021  0.00  0.00    +0.000 A 
ATOM     14  C   UNL     1     -12.151   1.241  21.199  0.00  0.00    +0.000 A 
ATOM     15  C   UNL     1     -12.890   1.647  20.079  0.00  0.00    +0.000 A 
ATOM     16  C   UNL     1     -12.589   1.156  18.802  0.00  0.00    +0.000 A 
ATOM     17  C   UNL     1     -11.552   0.240  18.624  0.00  0.00    +0.000 A 
ATOM     18  N   UNL     1     -11.221  -0.233  17.344  0.00  0.00    +0.000 N 
ATOM     19  C   UNL     1     -11.255  -2.700  17.698  0.00  0.00    +0.000 C 
ATOM     20  C   UNL     1     -10.502  -3.791  18.476  0.00  0.00    +0.000 C 
ATOM     21  H   UNL     1     -12.696  -5.089  17.199  0.00  0.00    +0.000 HD
ATOM     22  H   UNL     1     -11.581  -5.495  15.860  0.00  0.00    +0.000 HD
ATOM     23  H   UNL     1     -12.575  -2.988  15.971  0.00  0.00    +0.000 HD
ATOM     24  H   UNL     1     -10.805  -3.069  14.393  0.00  0.00    +0.000 HD
ATOM     25  H   UNL     1      -9.672  -3.802  15.523  0.00  0.00    +0.000 HD
ATOM     26  H   UNL     1     -10.362  -0.931  15.172  0.00  0.00    +0.000 HD
ATOM     27  H   UNL     1      -8.868  -1.659  15.745  0.00  0.00    +0.000 HD
ATOM     28  H   UNL     1      -8.474  -1.790  18.083  0.00  0.00    +0.000 HD
ATOM     29  H   UNL     1     -10.469   0.048  21.863  0.00  0.00    +0.000 HD
ATOM     30  H   UNL     1     -13.701   2.364  20.193  0.00  0.00    +0.000 HD
ATOM     31  H   UNL     1     -13.167   1.505  17.952  0.00  0.00    +0.000 HD
ATOM     32  H   UNL     1     -11.993  -0.207  16.687  0.00  0.00    +0.000 HD
ATOM     33  H   UNL     1     -12.165  -2.437  18.254  0.00  0.00    +0.000 HD
ATOM     34  H   UNL     1     -10.918  -3.899  19.484  0.00  0.00    +0.000 HD
ATOM     35  H   UNL     1      -9.426  -3.631  18.572  0.00  0.00    +0.000 HD
ENDROOT
BRANCH   1  39
ATOM     36  C   UNL     1      -9.765  -9.506  16.863  0.00  0.00    +0.000 A 
ATOM     37  C   UNL     1     -10.874  -9.120  16.146  0.00  0.00    +0.000 A 
ATOM     38  C   UNL     1     -11.125  -7.779  16.510  0.00  0.00    +0.000 A 
ATOM     39  C   UNL     1     -10.161  -7.420  17.441  0.00  0.00    +0.000 A 
ATOM     40  O   UNL     1      -9.331  -8.484  17.648  0.00  0.00    +0.000 OA
ATOM     41  H   UNL     1     -11.416  -9.721  15.428  0.00  0.00    +0.000 HD
ATOM     42  H   UNL     1     -11.904  -7.125  16.140  0.00  0.00    +0.000 HD
BRANCH  36  43
ATOM     43  C   UNL     1      -8.953 -10.748  16.893  0.00  0.00    +0.000 C 
ATOM     44  H   UNL     1      -7.942 -10.521  17.252  0.00  0.00    +0.000 HD
ATOM     45  H   UNL     1      -9.393 -11.457  17.604  0.00  0.00    +0.000 HD
BRANCH  43  46
ATOM     46  C   UNL     1      -8.895 -11.360  15.495  0.00  0.00    +0.000 C 
ATOM     47  H   UNL     1      -9.883 -11.302  15.023  0.00  0.00    +0.000 HD
ATOM     48  H   UNL     1      -8.211 -10.781  14.862  0.00  0.00    +0.000 HD
BRANCH  46  49
ATOM     49  C   UNL     1      -8.445 -12.811  15.511  0.00  0.00    +0.000 C 
ATOM     50  H   UNL     1      -7.691 -12.971  14.735  0.00  0.00    +0.000 HD
ATOM     51  H   UNL     1      -9.283 -13.486  15.314  0.00  0.00    +0.000 HD
ATOM     52  H   UNL     1      -8.003 -13.076  16.475  0.00  0.00    +0.000 HD
ENDBRANCH  46  49
ENDBRANCH  43  46
ENDBRANCH  36  43
ENDBRANCH   1  39
BRANCH  14  53
ATOM     53  C   UNL     1     -12.463   1.795  22.557  0.00  0.00    +0.000 C 
ATOM     54  H   UNL     1     -12.232   1.072  23.346  0.00  0.00    +0.000 HD
ATOM     55  H   UNL     1     -13.526   2.045  22.631  0.00  0.00    +0.000 HD
ATOM     56  H   UNL     1     -11.866   2.694  22.740  0.00  0.00    +0.000 HD
ENDBRANCH  14  53
TORSDOF 5
ENDMDL
