REMARK  Name = 
REMARK  5 active torsions:
REMARK  status: ('A' for Active; 'I' for Inactive)
REMARK    1  A    between atoms: N_1  and  C_2
REMARK    2  A    between atoms: N_4  and  C_5
REMARK    3  A    between atoms: C_5  and  C_6
REMARK    4  A    between atoms: C_14  and  N_15
REMARK    5  A    between atoms: N_15  and  C_16
REMARK                            x       y       z     vdW  Elec       q    Type
REMARK                         _______ _______ _______ _____ _____    ______ ____
ROOT
ATOM      1  C   UNL     1       1.292  -0.045  -1.649  0.00  0.00    +0.000 A 
ATOM      2  C   UNL     1       1.156  -1.355  -2.164  0.00  0.00    +0.000 A 
ATOM      3  N   UNL     1       1.191  -1.514  -3.562  0.00  0.00    +0.000 N 
ATOM      4  N   UNL     1       1.021  -2.428  -1.373  0.00  0.00    +0.000 NA
ATOM      5  C   UNL     1       1.028  -2.184  -0.063  0.00  0.00    +0.000 A 
ATOM      6  N   UNL     1       1.168  -0.983   0.495  0.00  0.00    +0.000 N 
ATOM      7  C   UNL     1       1.297   0.124  -0.245  0.00  0.00    +0.000 A 
ATOM      8  H   UNL     1       2.162  -1.519  -3.866  0.00  0.00    +0.000 HD
ATOM      9  H   UNL     1       0.911  -3.026   0.616  0.00  0.00    +0.000 HD
ATOM     10  H   UNL     1       1.166  -0.920   1.501  0.00  0.00    +0.000 HD
ENDROOT
BRANCH   1  11
ATOM     11  N   UNL     1       1.546   1.038  -2.537  0.00  0.00    +0.000 N 
ATOM     12  H   UNL     1       1.240   0.763  -3.478  0.00  0.00    +0.000 HD
ATOM     13  H   UNL     1       1.088   1.899  -2.248  0.00  0.00    +0.000 HD
ENDBRANCH   1  11
BRANCH   3  14
ATOM     14  C   UNL     1       0.398  -2.620  -4.121  0.00  0.00    +0.000 C 
ATOM     15  H   UNL     1       0.409  -3.510  -3.480  0.00  0.00    +0.000 HD
ATOM     16  H   UNL     1       0.861  -2.907  -5.073  0.00  0.00    +0.000 HD
BRANCH  14  17
ATOM     17  C   UNL     1      -1.048  -2.141  -4.401  0.00  0.00    +0.000 C 
ATOM     18  C   UNL     1      -1.888  -3.166  -5.152  0.00  0.00    +0.000 C 
ATOM     19  C   UNL     1      -2.580  -3.915  -4.043  0.00  0.00    +0.000 C 
ATOM     20  C   UNL     1      -2.807  -2.830  -3.015  0.00  0.00    +0.000 C 
ATOM     21  O   UNL     1      -1.735  -1.888  -3.154  0.00  0.00    +0.000 OA
ATOM     22  H   UNL     1      -1.009  -1.201  -4.965  0.00  0.00    +0.000 HD
ATOM     23  H   UNL     1      -1.315  -3.811  -5.824  0.00  0.00    +0.000 HD
ATOM     24  H   UNL     1      -2.642  -2.645  -5.756  0.00  0.00    +0.000 HD
ATOM     25  H   UNL     1      -1.913  -4.684  -3.638  0.00  0.00    +0.000 HD
ATOM     26  H   UNL     1      -3.509  -4.400  -4.355  0.00  0.00    +0.000 HD
ATOM     27  H   UNL     1      -2.815  -3.219  -1.993  0.00  0.00    +0.000 HD
ATOM     28  H   UNL     1      -3.747  -2.298  -3.194  0.00  0.00    +0.000 HD
ENDBRANCH  14  17
ENDBRANCH   3  14
BRANCH   7  29
ATOM     29  N   UNL     1       1.308   1.392   0.337  0.00  0.00    +0.000 N 
ATOM     30  H   UNL     1       2.003   2.023  -0.071  0.00  0.00    +0.000 HD
BRANCH  29  31
ATOM     31  C   UNL     1       0.823   1.718   1.690  0.00  0.00    +0.000 C 
ATOM     32  C   UNL     1       1.841   1.279   2.771  0.00  0.00    +0.000 C 
ATOM     33  C   UNL     1       1.267   1.523   4.176  0.00  0.00    +0.000 C 
ATOM     34  C   UNL     1       1.056   3.032   4.371  0.00  0.00    +0.000 C 
ATOM     35  C   UNL     1       0.093   3.566   3.296  0.00  0.00    +0.000 C 
ATOM     36  C   UNL     1      -1.264   2.869   3.497  0.00  0.00    +0.000 C 
ATOM     37  C   UNL     1      -1.101   1.357   3.308  0.00  0.00    +0.000 C 
ATOM     38  C   UNL     1      -0.080   0.793   4.312  0.00  0.00    +0.000 C 
ATOM     39  C   UNL     1      -0.589   1.106   1.891  0.00  0.00    +0.000 C 
ATOM     40  C   UNL     1       0.651   3.255   1.878  0.00  0.00    +0.000 C 
ATOM     41  H   UNL     1       2.777   1.844   2.653  0.00  0.00    +0.000 HD
ATOM     42  H   UNL     1       2.130   0.230   2.681  0.00  0.00    +0.000 HD
ATOM     43  H   UNL     1       1.968   1.148   4.930  0.00  0.00    +0.000 HD
ATOM     44  H   UNL     1       2.015   3.561   4.315  0.00  0.00    +0.000 HD
ATOM     45  H   UNL     1       0.647   3.222   5.372  0.00  0.00    +0.000 HD
ATOM     46  H   UNL     1      -0.032   4.648   3.419  0.00  0.00    +0.000 HD
ATOM     47  H   UNL     1      -1.998   3.262   2.782  0.00  0.00    +0.000 HD
ATOM     48  H   UNL     1      -1.656   3.075   4.501  0.00  0.00    +0.000 HD
ATOM     49  H   UNL     1      -2.067   0.858   3.440  0.00  0.00    +0.000 HD
ATOM     50  H   UNL     1       0.062  -0.282   4.133  0.00  0.00    +0.000 HD
ATOM     51  H   UNL     1      -0.465   0.899   5.330  0.00  0.00    +0.000 HD
ATOM     52  H   UNL     1      -1.284   1.540   1.158  0.00  0.00    +0.000 HD
ATOM     53  H   UNL     1      -0.619   0.030   1.714  0.00  0.00    +0.000 HD
ATOM     54  H   UNL     1       1.611   3.771   1.743  0.00  0.00    +0.000 HD
ATOM     55  H   UNL     1      -0.027   3.663   1.117  0.00  0.00    +0.000 HD
ENDBRANCH  29  31
ENDBRANCH   7  29
TORSDOF 5
