MODEL 1
REMARK VINA RESULT:   -10.743      0.000      0.000
REMARK INTER + INTRA:         -14.990
REMARK INTER:                 -14.197
REMARK INTRA:                  -0.794
REMARK UNBOUND:                -0.794
REMARK  Name = 
REMARK  6 active torsions:
REMARK  status: ('A' for Active; 'I' for Inactive)
REMARK    1  A    between atoms: C_1  and  C_2
REMARK    2  A    between atoms: C_5  and  C_6
REMARK    3  A    between atoms: C_6  and  C_7
REMARK    4  A    between atoms: C_7  and  C_8
REMARK    5  A    between atoms: N_11  and  C_12
REMARK    6  A    between atoms: C_12  and  C_13
REMARK                            x       y       z     vdW  Elec       q    Type
REMARK                         _______ _______ _______ _____ _____    ______ ____
ROOT
ATOM      1  C   UNL     1     -10.351  -7.028  15.831  0.00  0.00    +0.000 C 
ATOM      2  C   UNL     1      -8.858  -6.674  15.796  0.00  0.00    +0.000 C 
ATOM      3  C   UNL     1      -8.201  -6.802  17.164  0.00  0.00    +0.000 C 
ATOM      4  N   UNL     1      -8.956  -6.008  18.212  0.00  0.00    +0.000 N 
ATOM      5  C   UNL     1     -10.457  -6.131  18.198  0.00  0.00    +0.000 C 
ATOM      6  C   UNL     1     -11.021  -6.039  16.789  0.00  0.00    +0.000 C 
ATOM      7  H   UNL     1     -10.763  -6.870  14.827  0.00  0.00    +0.000 HD
ATOM      8  H   UNL     1      -8.741  -5.642  15.437  0.00  0.00    +0.000 HD
ATOM      9  H   UNL     1      -8.333  -7.311  15.076  0.00  0.00    +0.000 HD
ATOM     10  H   UNL     1      -7.183  -6.401  17.123  0.00  0.00    +0.000 HD
ATOM     11  H   UNL     1      -8.157  -7.843  17.496  0.00  0.00    +0.000 HD
ATOM     12  H   UNL     1      -8.709  -5.018  18.056  0.00  0.00    +0.000 HD
ATOM     13  H   UNL     1     -10.848  -5.315  18.816  0.00  0.00    +0.000 HD
ATOM     14  H   UNL     1     -10.721  -7.084  18.671  0.00  0.00    +0.000 HD
ATOM     15  H   UNL     1     -10.880  -5.018  16.410  0.00  0.00    +0.000 HD
ATOM     16  H   UNL     1     -12.105  -6.196  16.815  0.00  0.00    +0.000 HD
ENDROOT
BRANCH   1  17
ATOM     17  C   UNL     1     -10.566  -8.516  16.205  0.00  0.00    +0.000 C 
ATOM     18  H   UNL     1     -10.337  -8.643  17.272  0.00  0.00    +0.000 HD
ATOM     19  H   UNL     1     -11.619  -8.797  16.093  0.00  0.00    +0.000 HD
BRANCH  17  20
ATOM     20  C   UNL     1      -9.713  -9.493  15.388  0.00  0.00    +0.000 C 
ATOM     21  H   UNL     1     -10.273  -9.872  14.526  0.00  0.00    +0.000 HD
ATOM     22  H   UNL     1      -8.835  -8.977  14.981  0.00  0.00    +0.000 HD
BRANCH  20  26
ATOM     23  C   UNL     1      -8.475 -12.893  17.765  0.00  0.00    +0.000 A 
ATOM     24  C   UNL     1      -8.797 -11.680  18.381  0.00  0.00    +0.000 A 
ATOM     25  C   UNL     1      -9.189 -10.578  17.616  0.00  0.00    +0.000 A 
ATOM     26  C   UNL     1      -9.270 -10.672  16.220  0.00  0.00    +0.000 A 
ATOM     27  C   UNL     1      -8.929 -11.882  15.604  0.00  0.00    +0.000 A 
ATOM     28  C   UNL     1      -8.538 -12.982  16.371  0.00  0.00    +0.000 A 
ATOM     29  H   UNL     1      -8.758 -11.591  19.466  0.00  0.00    +0.000 HD
ATOM     30  H   UNL     1      -9.447  -9.653  18.126  0.00  0.00    +0.000 HD
ATOM     31  H   UNL     1      -8.979 -11.986  14.523  0.00  0.00    +0.000 HD
ATOM     32  H   UNL     1      -8.293 -13.918  15.873  0.00  0.00    +0.000 HD
BRANCH  23  33
ATOM     33  C   UNL     1      -8.084 -14.097  18.573  0.00  0.00    +0.000 C 
ATOM     34  H   UNL     1      -7.781 -14.931  17.932  0.00  0.00    +0.000 HD
ATOM     35  H   UNL     1      -8.926 -14.431  19.187  0.00  0.00    +0.000 HD
ATOM     36  H   UNL     1      -7.239 -13.851  19.225  0.00  0.00    +0.000 HD
ENDBRANCH  23  33
ENDBRANCH  20  26
ENDBRANCH  17  20
ENDBRANCH   1  17
BRANCH   4  37
ATOM     37  C   UNL     1      -8.423  -6.336  19.621  0.00  0.00    +0.000 C 
ATOM     38  H   UNL     1      -8.167  -7.402  19.623  0.00  0.00    +0.000 HD
ATOM     39  H   UNL     1      -9.254  -6.169  20.316  0.00  0.00    +0.000 HD
BRANCH  37  40
ATOM     40  C   UNL     1      -7.246  -5.495  20.059  0.00  0.00    +0.000 A 
ATOM     41  N   UNL     1      -6.036  -6.010  19.844  0.00  0.00    +0.000 NA
ATOM     42  C   UNL     1      -5.038  -5.299  20.346  0.00  0.00    +0.000 A 
ATOM     43  N   UNL     1      -3.762  -5.775  20.160  0.00  0.00    +0.000 N 
ATOM     44  N   UNL     1      -5.180  -4.169  21.022  0.00  0.00    +0.000 NA
ATOM     45  C   UNL     1      -6.425  -3.761  21.208  0.00  0.00    +0.000 A 
ATOM     46  N   UNL     1      -6.618  -2.610  21.938  0.00  0.00    +0.000 N 
ATOM     47  N   UNL     1      -7.497  -4.385  20.750  0.00  0.00    +0.000 NA
ATOM     48  H   UNL     1      -3.667  -6.337  19.327  0.00  0.00    +0.000 HD
ATOM     49  H   UNL     1      -3.075  -5.042  20.292  0.00  0.00    +0.000 HD
ATOM     50  H   UNL     1      -5.783  -2.036  21.967  0.00  0.00    +0.000 HD
ATOM     51  H   UNL     1      -7.488  -2.145  21.731  0.00  0.00    +0.000 HD
ENDBRANCH  37  40
ENDBRANCH   4  37
TORSDOF 6
ENDMDL
MODEL 2
REMARK VINA RESULT:   -10.595      0.159      1.640
REMARK INTER + INTRA:         -14.796
REMARK INTER:                 -14.008
REMARK INTRA:                  -0.788
REMARK UNBOUND:                -0.794
REMARK  Name = 
REMARK  6 active torsions:
REMARK  status: ('A' for Active; 'I' for Inactive)
REMARK    1  A    between atoms: C_1  and  C_2
REMARK    2  A    between atoms: C_5  and  C_6
REMARK    3  A    between atoms: C_6  and  C_7
REMARK    4  A    between atoms: C_7  and  C_8
REMARK    5  A    between atoms: N_11  and  C_12
REMARK    6  A    between atoms: C_12  and  C_13
REMARK                            x       y       z     vdW  Elec       q    Type
REMARK                         _______ _______ _______ _____ _____    ______ ____
ROOT
ATOM      1  C   UNL     1     -10.301  -7.020  15.838  0.00  0.00    +0.000 C 
ATOM      2  C   UNL     1      -8.805  -6.688  15.913  0.00  0.00    +0.000 C 
ATOM      3  C   UNL     1      -8.247  -6.841  17.322  0.00  0.00    +0.000 C 
ATOM      4  N   UNL     1      -9.062  -6.048  18.324  0.00  0.00    +0.000 N 
ATOM      5  C   UNL     1     -10.561  -6.148  18.203  0.00  0.00    +0.000 C 
ATOM      6  C   UNL     1     -11.023  -6.032  16.760  0.00  0.00    +0.000 C 
ATOM      7  H   UNL     1     -10.639  -6.845  14.810  0.00  0.00    +0.000 HD
ATOM      8  H   UNL     1      -8.648  -5.654  15.575  0.00  0.00    +0.000 HD
ATOM      9  H   UNL     1      -8.239  -7.325  15.223  0.00  0.00    +0.000 HD
ATOM     10  H   UNL     1      -7.223  -6.456  17.357  0.00  0.00    +0.000 HD
ATOM     11  H   UNL     1      -8.241  -7.887  17.643  0.00  0.00    +0.000 HD
ATOM     12  H   UNL     1      -8.791  -5.060  18.198  0.00  0.00    +0.000 HD
ATOM     13  H   UNL     1     -10.982  -5.333  18.802  0.00  0.00    +0.000 HD
ATOM     14  H   UNL     1     -10.870  -7.102  18.644  0.00  0.00    +0.000 HD
ATOM     15  H   UNL     1     -10.840  -5.009  16.403  0.00  0.00    +0.000 HD
ATOM     16  H   UNL     1     -12.108  -6.172  16.707  0.00  0.00    +0.000 HD
ENDROOT
BRANCH   1  17
ATOM     17  C   UNL     1     -10.563  -8.509  16.178  0.00  0.00    +0.000 C 
ATOM     18  H   UNL     1     -10.383  -8.657  17.252  0.00  0.00    +0.000 HD
ATOM     19  H   UNL     1     -11.616  -8.765  16.017  0.00  0.00    +0.000 HD
BRANCH  17  20
ATOM     20  C   UNL     1      -9.696  -9.491  15.383  0.00  0.00    +0.000 C 
ATOM     21  H   UNL     1     -10.239  -9.874  14.513  0.00  0.00    +0.000 HD
ATOM     22  H   UNL     1      -8.809  -8.978  14.990  0.00  0.00    +0.000 HD
BRANCH  20  26
ATOM     23  C   UNL     1      -8.509 -12.879  17.803  0.00  0.00    +0.000 A 
ATOM     24  C   UNL     1      -8.800 -11.650  18.403  0.00  0.00    +0.000 A 
ATOM     25  C   UNL     1      -9.175 -10.552  17.623  0.00  0.00    +0.000 A 
ATOM     26  C   UNL     1      -9.271 -10.666  16.229  0.00  0.00    +0.000 A 
ATOM     27  C   UNL     1      -8.960 -11.892  15.630  0.00  0.00    +0.000 A 
ATOM     28  C   UNL     1      -8.585 -12.988  16.410  0.00  0.00    +0.000 A 
ATOM     29  H   UNL     1      -8.750 -11.546  19.485  0.00  0.00    +0.000 HD
ATOM     30  H   UNL     1      -9.410  -9.615  18.121  0.00  0.00    +0.000 HD
ATOM     31  H   UNL     1      -9.021 -12.011  14.550  0.00  0.00    +0.000 HD
ATOM     32  H   UNL     1      -8.364 -13.937  15.925  0.00  0.00    +0.000 HD
BRANCH  23  33
ATOM     33  C   UNL     1      -8.136 -14.078  18.626  0.00  0.00    +0.000 C 
ATOM     34  H   UNL     1      -7.278 -14.608  18.199  0.00  0.00    +0.000 HD
ATOM     35  H   UNL     1      -8.975 -14.779  18.676  0.00  0.00    +0.000 HD
ATOM     36  H   UNL     1      -7.866 -13.767  19.640  0.00  0.00    +0.000 HD
ENDBRANCH  23  33
ENDBRANCH  20  26
ENDBRANCH  17  20
ENDBRANCH   1  17
BRANCH   4  37
ATOM     37  C   UNL     1      -8.635  -6.399  19.762  0.00  0.00    +0.000 C 
ATOM     38  H   UNL     1      -8.442  -7.478  19.781  0.00  0.00    +0.000 HD
ATOM     39  H   UNL     1      -9.494  -6.181  20.406  0.00  0.00    +0.000 HD
BRANCH  37  40
ATOM     40  C   UNL     1      -7.438  -5.627  20.269  0.00  0.00    +0.000 A 
ATOM     41  N   UNL     1      -7.692  -4.458  20.858  0.00  0.00    +0.000 NA
ATOM     42  C   UNL     1      -6.614  -3.760  21.180  0.00  0.00    +0.000 A 
ATOM     43  N   UNL     1      -6.806  -2.543  21.791  0.00  0.00    +0.000 N 
ATOM     44  N   UNL     1      -5.368  -4.142  20.949  0.00  0.00    +0.000 NA
ATOM     45  C   UNL     1      -5.226  -5.303  20.330  0.00  0.00    +0.000 A 
ATOM     46  N   UNL     1      -3.947  -5.719  20.038  0.00  0.00    +0.000 N 
ATOM     47  N   UNL     1      -6.226  -6.087  19.965  0.00  0.00    +0.000 NA
ATOM     48  H   UNL     1      -7.665  -2.496  22.318  0.00  0.00    +0.000 HD
ATOM     49  H   UNL     1      -5.966  -2.236  22.268  0.00  0.00    +0.000 HD
ATOM     50  H   UNL     1      -3.257  -5.254  20.616  0.00  0.00    +0.000 HD
ATOM     51  H   UNL     1      -3.864  -6.719  19.938  0.00  0.00    +0.000 HD
ENDBRANCH  37  40
ENDBRANCH   4  37
TORSDOF 6
ENDMDL
MODEL 3
REMARK VINA RESULT:   -10.329      2.837      3.840
REMARK INTER + INTRA:         -14.443
REMARK INTER:                 -13.794
REMARK INTRA:                  -0.649
REMARK UNBOUND:                -0.794
REMARK  Name = 
REMARK  6 active torsions:
REMARK  status: ('A' for Active; 'I' for Inactive)
REMARK    1  A    between atoms: C_1  and  C_2
REMARK    2  A    between atoms: C_5  and  C_6
REMARK    3  A    between atoms: C_6  and  C_7
REMARK    4  A    between atoms: C_7  and  C_8
REMARK    5  A    between atoms: N_11  and  C_12
REMARK    6  A    between atoms: C_12  and  C_13
REMARK                            x       y       z     vdW  Elec       q    Type
REMARK                         _______ _______ _______ _____ _____    ______ ____
ROOT
ATOM      1  C   UNL     1      -8.484  -7.370  17.005  0.00  0.00    +0.000 C 
ATOM      2  C   UNL     1      -8.084  -6.365  18.093  0.00  0.00    +0.000 C 
ATOM      3  C   UNL     1      -9.227  -5.430  18.465  0.00  0.00    +0.000 C 
ATOM      4  N   UNL     1      -9.801  -4.750  17.239  0.00  0.00    +0.000 N 
ATOM      5  C   UNL     1     -10.042  -5.623  16.035  0.00  0.00    +0.000 C 
ATOM      6  C   UNL     1      -8.871  -6.555  15.767  0.00  0.00    +0.000 C 
ATOM      7  H   UNL     1      -7.603  -7.976  16.759  0.00  0.00    +0.000 HD
ATOM      8  H   UNL     1      -7.233  -5.768  17.737  0.00  0.00    +0.000 HD
ATOM      9  H   UNL     1      -7.735  -6.893  18.989  0.00  0.00    +0.000 HD
ATOM     10  H   UNL     1      -8.857  -4.643  19.131  0.00  0.00    +0.000 HD
ATOM     11  H   UNL     1     -10.039  -5.963  18.968  0.00  0.00    +0.000 HD
ATOM     12  H   UNL     1      -9.128  -4.012  16.977  0.00  0.00    +0.000 HD
ATOM     13  H   UNL     1     -10.195  -4.953  15.182  0.00  0.00    +0.000 HD
ATOM     14  H   UNL     1     -10.966  -6.185  16.207  0.00  0.00    +0.000 HD
ATOM     15  H   UNL     1      -8.005  -5.963  15.441  0.00  0.00    +0.000 HD
ATOM     16  H   UNL     1      -9.110  -7.215  14.926  0.00  0.00    +0.000 HD
ENDROOT
BRANCH   1  17
ATOM     17  C   UNL     1      -9.594  -8.327  17.506  0.00  0.00    +0.000 C 
ATOM     18  H   UNL     1     -10.293  -7.753  18.129  0.00  0.00    +0.000 HD
ATOM     19  H   UNL     1     -10.190  -8.705  16.667  0.00  0.00    +0.000 HD
BRANCH  17  20
ATOM     20  C   UNL     1      -9.071  -9.523  18.308  0.00  0.00    +0.000 C 
ATOM     21  H   UNL     1      -8.094  -9.300  18.747  0.00  0.00    +0.000 HD
ATOM     22  H   UNL     1      -9.744  -9.736  19.148  0.00  0.00    +0.000 HD
BRANCH  20  26
ATOM     23  C   UNL     1      -8.707 -13.049  15.822  0.00  0.00    +0.000 A 
ATOM     24  C   UNL     1      -8.554 -13.143  17.208  0.00  0.00    +0.000 A 
ATOM     25  C   UNL     1      -8.662 -12.005  18.013  0.00  0.00    +0.000 A 
ATOM     26  C   UNL     1      -8.932 -10.753  17.444  0.00  0.00    +0.000 A 
ATOM     27  C   UNL     1      -9.065 -10.658  16.054  0.00  0.00    +0.000 A 
ATOM     28  C   UNL     1      -8.956 -11.796  15.251  0.00  0.00    +0.000 A 
ATOM     29  H   UNL     1      -8.363 -14.110  17.672  0.00  0.00    +0.000 HD
ATOM     30  H   UNL     1      -8.554 -12.114  19.089  0.00  0.00    +0.000 HD
ATOM     31  H   UNL     1      -9.271  -9.699  15.582  0.00  0.00    +0.000 HD
ATOM     32  H   UNL     1      -9.081 -11.702  14.174  0.00  0.00    +0.000 HD
BRANCH  23  33
ATOM     33  C   UNL     1      -8.626 -14.265  14.945  0.00  0.00    +0.000 C 
ATOM     34  H   UNL     1      -7.709 -14.270  14.347  0.00  0.00    +0.000 HD
ATOM     35  H   UNL     1      -9.478 -14.293  14.258  0.00  0.00    +0.000 HD
ATOM     36  H   UNL     1      -8.630 -15.171  15.560  0.00  0.00    +0.000 HD
ENDBRANCH  23  33
ENDBRANCH  20  26
ENDBRANCH  17  20
ENDBRANCH   1  17
BRANCH   4  37
ATOM     37  C   UNL     1     -11.098  -3.997  17.599  0.00  0.00    +0.000 C 
ATOM     38  H   UNL     1     -11.823  -4.753  17.924  0.00  0.00    +0.000 HD
ATOM     39  H   UNL     1     -11.458  -3.534  16.673  0.00  0.00    +0.000 HD
BRANCH  37  40
ATOM     40  C   UNL     1     -10.929  -2.922  18.648  0.00  0.00    +0.000 A 
ATOM     41  N   UNL     1      -9.940  -2.051  18.451  0.00  0.00    +0.000 NA
ATOM     42  C   UNL     1      -9.751  -1.200  19.448  0.00  0.00    +0.000 A 
ATOM     43  N   UNL     1      -8.743  -0.273  19.310  0.00  0.00    +0.000 N 
ATOM     44  N   UNL     1     -10.453  -1.181  20.570  0.00  0.00    +0.000 NA
ATOM     45  C   UNL     1     -11.390  -2.108  20.679  0.00  0.00    +0.000 A 
ATOM     46  N   UNL     1     -12.118  -2.147  21.847  0.00  0.00    +0.000 N 
ATOM     47  N   UNL     1     -11.671  -3.006  19.750  0.00  0.00    +0.000 NA
ATOM     48  H   UNL     1      -8.551  -0.039  18.347  0.00  0.00    +0.000 HD
ATOM     49  H   UNL     1      -8.871   0.504  19.948  0.00  0.00    +0.000 HD
ATOM     50  H   UNL     1     -12.078  -1.267  22.347  0.00  0.00    +0.000 HD
ATOM     51  H   UNL     1     -13.025  -2.573  21.740  0.00  0.00    +0.000 HD
ENDBRANCH  37  40
ENDBRANCH   4  37
TORSDOF 6
ENDMDL
MODEL 4
REMARK VINA RESULT:   -10.328      2.845      4.138
REMARK INTER + INTRA:         -14.443
REMARK INTER:                 -13.820
REMARK INTRA:                  -0.623
REMARK UNBOUND:                -0.794
REMARK  Name = 
REMARK  6 active torsions:
REMARK  status: ('A' for Active; 'I' for Inactive)
REMARK    1  A    between atoms: C_1  and  C_2
REMARK    2  A    between atoms: C_5  and  C_6
REMARK    3  A    between atoms: C_6  and  C_7
REMARK    4  A    between atoms: C_7  and  C_8
REMARK    5  A    between atoms: N_11  and  C_12
REMARK    6  A    between atoms: C_12  and  C_13
REMARK                            x       y       z     vdW  Elec       q    Type
REMARK                         _______ _______ _______ _____ _____    ______ ____
ROOT
ATOM      1  C   UNL     1      -8.393  -7.300  17.423  0.00  0.00    +0.000 C 
ATOM      2  C   UNL     1      -7.952  -6.257  18.459  0.00  0.00    +0.000 C 
ATOM      3  C   UNL     1      -9.076  -5.299  18.830  0.00  0.00    +0.000 C 
ATOM      4  N   UNL     1      -9.683  -4.661  17.596  0.00  0.00    +0.000 N 
ATOM      5  C   UNL     1      -9.968  -5.578  16.435  0.00  0.00    +0.000 C 
ATOM      6  C   UNL     1      -8.812  -6.529  16.167  0.00  0.00    +0.000 C 
ATOM      7  H   UNL     1      -7.524  -7.922  17.174  0.00  0.00    +0.000 HD
ATOM      8  H   UNL     1      -7.108  -5.681  18.055  0.00  0.00    +0.000 HD
ATOM      9  H   UNL     1      -7.579  -6.753  19.363  0.00  0.00    +0.000 HD
ATOM     10  H   UNL     1      -8.680  -4.490  19.453  0.00  0.00    +0.000 HD
ATOM     11  H   UNL     1      -9.876  -5.805  19.377  0.00  0.00    +0.000 HD
ATOM     12  H   UNL     1      -9.013  -3.940  17.285  0.00  0.00    +0.000 HD
ATOM     13  H   UNL     1     -10.142  -4.939  15.562  0.00  0.00    +0.000 HD
ATOM     14  H   UNL     1     -10.890  -6.125  16.657  0.00  0.00    +0.000 HD
ATOM     15  H   UNL     1      -7.953  -5.958  15.792  0.00  0.00    +0.000 HD
ATOM     16  H   UNL     1      -9.082  -7.219  15.360  0.00  0.00    +0.000 HD
ENDROOT
BRANCH   1  17
ATOM     17  C   UNL     1      -9.494  -8.227  17.994  0.00  0.00    +0.000 C 
ATOM     18  H   UNL     1     -10.083  -7.658  18.726  0.00  0.00    +0.000 HD
ATOM     19  H   UNL     1     -10.201  -8.519  17.210  0.00  0.00    +0.000 HD
BRANCH  17  20
ATOM     20  C   UNL     1      -8.955  -9.497  18.661  0.00  0.00    +0.000 C 
ATOM     21  H   UNL     1      -7.950  -9.331  19.061  0.00  0.00    +0.000 HD
ATOM     22  H   UNL     1      -9.585  -9.770  19.517  0.00  0.00    +0.000 HD
BRANCH  20  26
ATOM     23  C   UNL     1      -8.737 -12.805  15.876  0.00  0.00    +0.000 A 
ATOM     24  C   UNL     1      -9.083 -11.526  15.428  0.00  0.00    +0.000 A 
ATOM     25  C   UNL     1      -9.163 -10.458  16.327  0.00  0.00    +0.000 A 
ATOM     26  C   UNL     1      -8.892 -10.650  17.689  0.00  0.00    +0.000 A 
ATOM     27  C   UNL     1      -8.566 -11.935  18.137  0.00  0.00    +0.000 A 
ATOM     28  C   UNL     1      -8.486 -13.001  17.238  0.00  0.00    +0.000 A 
ATOM     29  H   UNL     1      -9.278 -11.352  14.371  0.00  0.00    +0.000 HD
ATOM     30  H   UNL     1      -9.419  -9.473  15.945  0.00  0.00    +0.000 HD
ATOM     31  H   UNL     1      -8.353 -12.117  19.188  0.00  0.00    +0.000 HD
ATOM     32  H   UNL     1      -8.214 -13.989  17.605  0.00  0.00    +0.000 HD
BRANCH  23  33
ATOM     33  C   UNL     1      -8.615 -13.957  14.921  0.00  0.00    +0.000 C 
ATOM     34  H   UNL     1      -7.967 -14.744  15.321  0.00  0.00    +0.000 HD
ATOM     35  H   UNL     1      -8.188 -13.618  13.972  0.00  0.00    +0.000 HD
ATOM     36  H   UNL     1      -9.601 -14.397  14.737  0.00  0.00    +0.000 HD
ENDBRANCH  23  33
ENDBRANCH  20  26
ENDBRANCH  17  20
ENDBRANCH   1  17
BRANCH   4  37
ATOM     37  C   UNL     1     -10.962  -3.884  17.967  0.00  0.00    +0.000 C 
ATOM     38  H   UNL     1     -11.688  -4.623  18.326  0.00  0.00    +0.000 HD
ATOM     39  H   UNL     1     -11.337  -3.439  17.039  0.00  0.00    +0.000 HD
BRANCH  37  40
ATOM     40  C   UNL     1     -10.757  -2.787  18.986  0.00  0.00    +0.000 A 
ATOM     41  N   UNL     1     -11.667  -2.701  19.957  0.00  0.00    +0.000 NA
ATOM     42  C   UNL     1     -11.518  -1.657  20.758  0.00  0.00    +0.000 A 
ATOM     43  N   UNL     1     -12.425  -1.508  21.781  0.00  0.00    +0.000 N 
ATOM     44  N   UNL     1     -10.568  -0.743  20.641  0.00  0.00    +0.000 NA
ATOM     45  C   UNL     1      -9.736  -0.903  19.625  0.00  0.00    +0.000 A 
ATOM     46  N   UNL     1      -8.756   0.047  19.445  0.00  0.00    +0.000 N 
ATOM     47  N   UNL     1      -9.784  -1.906  18.764  0.00  0.00    +0.000 NA
ATOM     48  H   UNL     1     -12.817  -2.385  22.092  0.00  0.00    +0.000 HD
ATOM     49  H   UNL     1     -12.066  -0.893  22.502  0.00  0.00    +0.000 HD
ATOM     50  H   UNL     1      -8.580   0.574  20.293  0.00  0.00    +0.000 HD
ATOM     51  H   UNL     1      -7.952  -0.296  18.943  0.00  0.00    +0.000 HD
ENDBRANCH  37  40
ENDBRANCH   4  37
TORSDOF 6
ENDMDL
MODEL 5
REMARK VINA RESULT:   -10.299      3.374      5.721
REMARK INTER + INTRA:         -14.403
REMARK INTER:                 -13.555
REMARK INTRA:                  -0.849
REMARK UNBOUND:                -0.794
REMARK  Name = 
REMARK  6 active torsions:
REMARK  status: ('A' for Active; 'I' for Inactive)
REMARK    1  A    between atoms: C_1  and  C_2
REMARK    2  A    between atoms: C_5  and  C_6
REMARK    3  A    between atoms: C_6  and  C_7
REMARK    4  A    between atoms: C_7  and  C_8
REMARK    5  A    between atoms: N_11  and  C_12
REMARK    6  A    between atoms: C_12  and  C_13
REMARK                            x       y       z     vdW  Elec       q    Type
REMARK                         _______ _______ _______ _____ _____    ______ ____
ROOT
ATOM      1  C   UNL     1      -8.362  -7.176  18.327  0.00  0.00    +0.000 C 
ATOM      2  C   UNL     1      -8.837  -5.872  18.981  0.00  0.00    +0.000 C 
ATOM      3  C   UNL     1     -10.101  -5.325  18.331  0.00  0.00    +0.000 C 
ATOM      4  N   UNL     1      -9.931  -5.186  16.832  0.00  0.00    +0.000 N 
ATOM      5  C   UNL     1      -9.281  -6.343  16.117  0.00  0.00    +0.000 C 
ATOM      6  C   UNL     1      -8.057  -6.853  16.861  0.00  0.00    +0.000 C 
ATOM      7  H   UNL     1      -7.429  -7.483  18.815  0.00  0.00    +0.000 HD
ATOM      8  H   UNL     1      -8.039  -5.119  18.905  0.00  0.00    +0.000 HD
ATOM      9  H   UNL     1      -9.012  -6.025  20.052  0.00  0.00    +0.000 HD
ATOM     10  H   UNL     1     -10.317  -4.328  18.728  0.00  0.00    +0.000 HD
ATOM     11  H   UNL     1     -10.963  -5.972  18.515  0.00  0.00    +0.000 HD
ATOM     12  H   UNL     1      -9.351  -4.345  16.684  0.00  0.00    +0.000 HD
ATOM     13  H   UNL     1      -8.997  -5.982  15.123  0.00  0.00    +0.000 HD
ATOM     14  H   UNL     1     -10.033  -7.131  16.001  0.00  0.00    +0.000 HD
ATOM     15  H   UNL     1      -7.265  -6.093  16.817  0.00  0.00    +0.000 HD
ATOM     16  H   UNL     1      -7.652  -7.730  16.345  0.00  0.00    +0.000 HD
ENDROOT
BRANCH   1  17
ATOM     17  C   UNL     1      -9.397  -8.311  18.523  0.00  0.00    +0.000 C 
ATOM     18  H   UNL     1     -10.165  -7.964  19.227  0.00  0.00    +0.000 HD
ATOM     19  H   UNL     1      -9.928  -8.519  17.587  0.00  0.00    +0.000 HD
BRANCH  17  20
ATOM     20  C   UNL     1      -8.795  -9.622  19.041  0.00  0.00    +0.000 C 
ATOM     21  H   UNL     1      -7.764  -9.471  19.375  0.00  0.00    +0.000 HD
ATOM     22  H   UNL     1      -9.354  -9.972  19.917  0.00  0.00    +0.000 HD
BRANCH  20  26
ATOM     23  C   UNL     1      -8.757 -12.691  15.987  0.00  0.00    +0.000 A 
ATOM     24  C   UNL     1      -9.154 -11.387  15.674  0.00  0.00    +0.000 A 
ATOM     25  C   UNL     1      -9.175 -10.396  16.660  0.00  0.00    +0.000 A 
ATOM     26  C   UNL     1      -8.795 -10.692  17.976  0.00  0.00    +0.000 A 
ATOM     27  C   UNL     1      -8.417 -12.001  18.291  0.00  0.00    +0.000 A 
ATOM     28  C   UNL     1      -8.396 -12.991  17.305  0.00  0.00    +0.000 A 
ATOM     29  H   UNL     1      -9.435 -11.133  14.653  0.00  0.00    +0.000 HD
ATOM     30  H   UNL     1      -9.474  -9.389  16.380  0.00  0.00    +0.000 HD
ATOM     31  H   UNL     1      -8.120 -12.263  19.305  0.00  0.00    +0.000 HD
ATOM     32  H   UNL     1      -8.083 -13.999  17.569  0.00  0.00    +0.000 HD
BRANCH  23  33
ATOM     33  C   UNL     1      -8.697 -13.760  14.936  0.00  0.00    +0.000 C 
ATOM     34  H   UNL     1      -9.077 -13.401  13.974  0.00  0.00    +0.000 HD
ATOM     35  H   UNL     1      -9.300 -14.622  15.237  0.00  0.00    +0.000 HD
ATOM     36  H   UNL     1      -7.660 -14.081  14.787  0.00  0.00    +0.000 HD
ENDBRANCH  23  33
ENDBRANCH  20  26
ENDBRANCH  17  20
ENDBRANCH   1  17
BRANCH   4  37
ATOM     37  C   UNL     1     -11.283  -4.861  16.165  0.00  0.00    +0.000 C 
ATOM     38  H   UNL     1     -11.920  -4.422  16.941  0.00  0.00    +0.000 HD
ATOM     39  H   UNL     1     -11.714  -5.818  15.850  0.00  0.00    +0.000 HD
BRANCH  37  40
ATOM     40  C   UNL     1     -11.187  -3.950  14.963  0.00  0.00    +0.000 A 
ATOM     41  N   UNL     1     -11.843  -4.339  13.870  0.00  0.00    +0.000 NA
ATOM     42  C   UNL     1     -11.639  -3.577  12.806  0.00  0.00    +0.000 A 
ATOM     43  N   UNL     1     -12.286  -3.924  11.643  0.00  0.00    +0.000 N 
ATOM     44  N   UNL     1     -10.852  -2.514  12.778  0.00  0.00    +0.000 NA
ATOM     45  C   UNL     1     -10.221  -2.232  13.906  0.00  0.00    +0.000 A 
ATOM     46  N   UNL     1      -9.363  -1.155  13.908  0.00  0.00    +0.000 N 
ATOM     47  N   UNL     1     -10.350  -2.917  15.030  0.00  0.00    +0.000 NA
ATOM     48  H   UNL     1     -13.152  -4.417  11.805  0.00  0.00    +0.000 HD
ATOM     49  H   UNL     1     -12.324  -3.144  10.998  0.00  0.00    +0.000 HD
ATOM     50  H   UNL     1      -9.562  -0.513  13.150  0.00  0.00    +0.000 HD
ATOM     51  H   UNL     1      -9.222  -0.757  14.823  0.00  0.00    +0.000 HD
ENDBRANCH  37  40
ENDBRANCH   4  37
TORSDOF 6
ENDMDL
MODEL 6
REMARK VINA RESULT:   -10.277      3.474      6.002
REMARK INTER + INTRA:         -14.376
REMARK INTER:                 -13.717
REMARK INTRA:                  -0.659
REMARK UNBOUND:                -0.794
REMARK  Name = 
REMARK  6 active torsions:
REMARK  status: ('A' for Active; 'I' for Inactive)
REMARK    1  A    between atoms: C_1  and  C_2
REMARK    2  A    between atoms: C_5  and  C_6
REMARK    3  A    between atoms: C_6  and  C_7
REMARK    4  A    between atoms: C_7  and  C_8
REMARK    5  A    between atoms: N_11  and  C_12
REMARK    6  A    between atoms: C_12  and  C_13
REMARK                            x       y       z     vdW  Elec       q    Type
REMARK                         _______ _______ _______ _____ _____    ______ ____
ROOT
ATOM      1  C   UNL     1      -8.390  -7.206  18.055  0.00  0.00    +0.000 C 
ATOM      2  C   UNL     1      -8.737  -5.901  18.784  0.00  0.00    +0.000 C 
ATOM      3  C   UNL     1     -10.052  -5.302  18.305  0.00  0.00    +0.000 C 
ATOM      4  N   UNL     1     -10.064  -5.138  16.798  0.00  0.00    +0.000 N 
ATOM      5  C   UNL     1      -9.546  -6.300  15.990  0.00  0.00    +0.000 C 
ATOM      6  C   UNL     1      -8.258  -6.863  16.568  0.00  0.00    +0.000 C 
ATOM      7  H   UNL     1      -7.415  -7.552  18.419  0.00  0.00    +0.000 HD
ATOM      8  H   UNL     1      -7.930  -5.173  18.623  0.00  0.00    +0.000 HD
ATOM      9  H   UNL     1      -8.784  -6.071  19.867  0.00  0.00    +0.000 HD
ATOM     10  H   UNL     1     -10.184  -4.307  18.742  0.00  0.00    +0.000 HD
ATOM     11  H   UNL     1     -10.907  -5.925  18.584  0.00  0.00    +0.000 HD
ATOM     12  H   UNL     1      -9.478  -4.313  16.594  0.00  0.00    +0.000 HD
ATOM     13  H   UNL     1      -9.374  -5.927  14.974  0.00  0.00    +0.000 HD
ATOM     14  H   UNL     1     -10.332  -7.061  15.955  0.00  0.00    +0.000 HD
ATOM     15  H   UNL     1      -7.452  -6.128  16.439  0.00  0.00    +0.000 HD
ATOM     16  H   UNL     1      -7.949  -7.742  15.992  0.00  0.00    +0.000 HD
ENDROOT
BRANCH   1  17
ATOM     17  C   UNL     1      -9.432  -8.312  18.359  0.00  0.00    +0.000 C 
ATOM     18  H   UNL     1     -10.162  -7.914  19.076  0.00  0.00    +0.000 HD
ATOM     19  H   UNL     1     -10.007  -8.562  17.460  0.00  0.00    +0.000 HD
BRANCH  17  20
ATOM     20  C   UNL     1      -8.825  -9.601  18.922  0.00  0.00    +0.000 C 
ATOM     21  H   UNL     1      -7.799  -9.432  19.265  0.00  0.00    +0.000 HD
ATOM     22  H   UNL     1      -9.392  -9.932  19.801  0.00  0.00    +0.000 HD
BRANCH  20  26
ATOM     23  C   UNL     1      -8.721 -12.757  15.959  0.00  0.00    +0.000 A 
ATOM     24  C   UNL     1      -9.100 -11.460  15.598  0.00  0.00    +0.000 A 
ATOM     25  C   UNL     1      -9.142 -10.441  16.554  0.00  0.00    +0.000 A 
ATOM     26  C   UNL     1      -8.802 -10.701  17.889  0.00  0.00    +0.000 A 
ATOM     27  C   UNL     1      -8.442 -12.004  18.252  0.00  0.00    +0.000 A 
ATOM     28  C   UNL     1      -8.400 -13.021  17.295  0.00  0.00    +0.000 A 
ATOM     29  H   UNL     1      -9.350 -11.233  14.562  0.00  0.00    +0.000 HD
ATOM     30  H   UNL     1      -9.425  -9.441  16.238  0.00  0.00    +0.000 HD
ATOM     31  H   UNL     1      -8.175 -12.238  19.280  0.00  0.00    +0.000 HD
ATOM     32  H   UNL     1      -8.101 -14.023  17.596  0.00  0.00    +0.000 HD
BRANCH  23  33
ATOM     33  C   UNL     1      -8.637 -13.856  14.941  0.00  0.00    +0.000 C 
ATOM     34  H   UNL     1      -7.954 -14.650  15.260  0.00  0.00    +0.000 HD
ATOM     35  H   UNL     1      -8.275 -13.461  13.986  0.00  0.00    +0.000 HD
ATOM     36  H   UNL     1      -9.625 -14.305  14.792  0.00  0.00    +0.000 HD
ENDBRANCH  23  33
ENDBRANCH  20  26
ENDBRANCH  17  20
ENDBRANCH   1  17
BRANCH   4  37
ATOM     37  C   UNL     1     -11.475  -4.757  16.310  0.00  0.00    +0.000 C 
ATOM     38  H   UNL     1     -11.985  -4.281  17.156  0.00  0.00    +0.000 HD
ATOM     39  H   UNL     1     -11.987  -5.696  16.069  0.00  0.00    +0.000 HD
BRANCH  37  40
ATOM     40  C   UNL     1     -11.498  -3.863  15.091  0.00  0.00    +0.000 A 
ATOM     41  N   UNL     1     -11.768  -2.575  15.304  0.00  0.00    +0.000 NA
ATOM     42  C   UNL     1     -11.895  -1.851  14.202  0.00  0.00    +0.000 A 
ATOM     43  N   UNL     1     -12.175  -0.513  14.352  0.00  0.00    +0.000 N 
ATOM     44  N   UNL     1     -11.783  -2.322  12.971  0.00  0.00    +0.000 NA
ATOM     45  C   UNL     1     -11.547  -3.620  12.868  0.00  0.00    +0.000 A 
ATOM     46  N   UNL     1     -11.460  -4.156  11.603  0.00  0.00    +0.000 N 
ATOM     47  N   UNL     1     -11.396  -4.440  13.895  0.00  0.00    +0.000 NA
ATOM     48  H   UNL     1     -11.830  -0.131  15.220  0.00  0.00    +0.000 HD
ATOM     49  H   UNL     1     -11.950   0.004  13.510  0.00  0.00    +0.000 HD
ATOM     50  H   UNL     1     -11.260  -3.449  10.906  0.00  0.00    +0.000 HD
ATOM     51  H   UNL     1     -10.918  -5.005  11.565  0.00  0.00    +0.000 HD
ENDBRANCH  37  40
ENDBRANCH   4  37
TORSDOF 6
ENDMDL
MODEL 7
REMARK VINA RESULT:   -10.048      1.975      3.045
REMARK INTER + INTRA:         -14.073
REMARK INTER:                 -13.537
REMARK INTRA:                  -0.536
REMARK UNBOUND:                -0.794
REMARK  Name = 
REMARK  6 active torsions:
REMARK  status: ('A' for Active; 'I' for Inactive)
REMARK    1  A    between atoms: C_1  and  C_2
REMARK    2  A    between atoms: C_5  and  C_6
REMARK    3  A    between atoms: C_6  and  C_7
REMARK    4  A    between atoms: C_7  and  C_8
REMARK    5  A    between atoms: N_11  and  C_12
REMARK    6  A    between atoms: C_12  and  C_13
REMARK                            x       y       z     vdW  Elec       q    Type
REMARK                         _______ _______ _______ _____ _____    ______ ____
ROOT
ATOM      1  C   UNL     1      -9.842  -7.920  18.281  0.00  0.00    +0.000 C 
ATOM      2  C   UNL     1     -10.583  -6.577  18.331  0.00  0.00    +0.000 C 
ATOM      3  C   UNL     1      -9.652  -5.413  18.644  0.00  0.00    +0.000 C 
ATOM      4  N   UNL     1      -8.853  -5.674  19.905  0.00  0.00    +0.000 N 
ATOM      5  C   UNL     1      -8.248  -7.047  20.047  0.00  0.00    +0.000 C 
ATOM      6  C   UNL     1      -9.232  -8.142  19.669  0.00  0.00    +0.000 C 
ATOM      7  H   UNL     1     -10.580  -8.710  18.097  0.00  0.00    +0.000 HD
ATOM      8  H   UNL     1     -11.368  -6.626  19.098  0.00  0.00    +0.000 HD
ATOM      9  H   UNL     1     -11.096  -6.391  17.380  0.00  0.00    +0.000 HD
ATOM     10  H   UNL     1     -10.241  -4.506  18.814  0.00  0.00    +0.000 HD
ATOM     11  H   UNL     1      -8.947  -5.228  17.829  0.00  0.00    +0.000 HD
ATOM     12  H   UNL     1      -9.501  -5.521  20.694  0.00  0.00    +0.000 HD
ATOM     13  H   UNL     1      -7.947  -7.153  21.095  0.00  0.00    +0.000 HD
ATOM     14  H   UNL     1      -7.351  -7.085  19.421  0.00  0.00    +0.000 HD
ATOM     15  H   UNL     1     -10.038  -8.178  20.414  0.00  0.00    +0.000 HD
ATOM     16  H   UNL     1      -8.737  -9.118  19.724  0.00  0.00    +0.000 HD
ENDROOT
BRANCH   1  17
ATOM     17  C   UNL     1      -8.812  -7.950  17.125  0.00  0.00    +0.000 C 
ATOM     18  H   UNL     1      -8.511  -6.917  16.900  0.00  0.00    +0.000 HD
ATOM     19  H   UNL     1      -7.895  -8.464  17.434  0.00  0.00    +0.000 HD
BRANCH  17  20
ATOM     20  C   UNL     1      -9.332  -8.612  15.844  0.00  0.00    +0.000 C 
ATOM     21  H   UNL     1     -10.408  -8.449  15.731  0.00  0.00    +0.000 HD
ATOM     22  H   UNL     1      -8.859  -8.156  14.966  0.00  0.00    +0.000 HD
BRANCH  20  26
ATOM     23  C   UNL     1      -8.632 -12.884  15.830  0.00  0.00    +0.000 A 
ATOM     24  C   UNL     1      -8.981 -12.230  17.015  0.00  0.00    +0.000 A 
ATOM     25  C   UNL     1      -9.199 -10.849  17.024  0.00  0.00    +0.000 A 
ATOM     26  C   UNL     1      -9.077 -10.100  15.846  0.00  0.00    +0.000 A 
ATOM     27  C   UNL     1      -8.709 -10.754  14.666  0.00  0.00    +0.000 A 
ATOM     28  C   UNL     1      -8.491 -12.134  14.657  0.00  0.00    +0.000 A 
ATOM     29  H   UNL     1      -9.100 -12.797  17.937  0.00  0.00    +0.000 HD
ATOM     30  H   UNL     1      -9.485 -10.372  17.959  0.00  0.00    +0.000 HD
ATOM     31  H   UNL     1      -8.602 -10.200  13.735  0.00  0.00    +0.000 HD
ATOM     32  H   UNL     1      -8.222 -12.626  13.725  0.00  0.00    +0.000 HD
BRANCH  23  33
ATOM     33  C   UNL     1      -8.426 -14.371  15.793  0.00  0.00    +0.000 C 
ATOM     34  H   UNL     1      -7.838 -14.674  14.921  0.00  0.00    +0.000 HD
ATOM     35  H   UNL     1      -9.391 -14.886  15.746  0.00  0.00    +0.000 HD
ATOM     36  H   UNL     1      -7.888 -14.696  16.690  0.00  0.00    +0.000 HD
ENDBRANCH  23  33
ENDBRANCH  20  26
ENDBRANCH  17  20
ENDBRANCH   1  17
BRANCH   4  37
ATOM     37  C   UNL     1      -7.756  -4.605  20.077  0.00  0.00    +0.000 C 
ATOM     38  H   UNL     1      -7.618  -4.132  19.097  0.00  0.00    +0.000 HD
ATOM     39  H   UNL     1      -6.837  -5.140  20.345  0.00  0.00    +0.000 HD
BRANCH  37  40
ATOM     40  C   UNL     1      -8.046  -3.572  21.141  0.00  0.00    +0.000 A 
ATOM     41  N   UNL     1      -8.019  -3.997  22.404  0.00  0.00    +0.000 NA
ATOM     42  C   UNL     1      -8.393  -3.092  23.296  0.00  0.00    +0.000 A 
ATOM     43  N   UNL     1      -8.389  -3.467  24.619  0.00  0.00    +0.000 N 
ATOM     44  N   UNL     1      -8.779  -1.860  23.007  0.00  0.00    +0.000 NA
ATOM     45  C   UNL     1      -8.802  -1.549  21.722  0.00  0.00    +0.000 A 
ATOM     46  N   UNL     1      -9.234  -0.288  21.376  0.00  0.00    +0.000 N 
ATOM     47  N   UNL     1      -8.447  -2.366  20.744  0.00  0.00    +0.000 NA
ATOM     48  H   UNL     1      -7.715  -4.190  24.823  0.00  0.00    +0.000 HD
ATOM     49  H   UNL     1      -8.382  -2.657  25.229  0.00  0.00    +0.000 HD
ATOM     50  H   UNL     1      -9.171   0.359  22.153  0.00  0.00    +0.000 HD
ATOM     51  H   UNL     1      -8.880   0.027  20.487  0.00  0.00    +0.000 HD
ENDBRANCH  37  40
ENDBRANCH   4  37
TORSDOF 6
ENDMDL
MODEL 8
REMARK VINA RESULT:   -10.028      1.213      1.799
REMARK INTER + INTRA:         -14.046
REMARK INTER:                 -14.127
REMARK INTRA:                   0.081
REMARK UNBOUND:                -0.794
REMARK  Name = 
REMARK  6 active torsions:
REMARK  status: ('A' for Active; 'I' for Inactive)
REMARK    1  A    between atoms: C_1  and  C_2
REMARK    2  A    between atoms: C_5  and  C_6
REMARK    3  A    between atoms: C_6  and  C_7
REMARK    4  A    between atoms: C_7  and  C_8
REMARK    5  A    between atoms: N_11  and  C_12
REMARK    6  A    between atoms: C_12  and  C_13
REMARK                            x       y       z     vdW  Elec       q    Type
REMARK                         _______ _______ _______ _____ _____    ______ ____
ROOT
ATOM      1  C   UNL     1     -11.013  -7.676  17.213  0.00  0.00    +0.000 C 
ATOM      2  C   UNL     1     -10.693  -6.247  16.754  0.00  0.00    +0.000 C 
ATOM      3  C   UNL     1      -9.260  -5.844  17.074  0.00  0.00    +0.000 C 
ATOM      4  N   UNL     1      -8.943  -6.061  18.540  0.00  0.00    +0.000 N 
ATOM      5  C   UNL     1      -9.402  -7.364  19.143  0.00  0.00    +0.000 C 
ATOM      6  C   UNL     1     -10.824  -7.709  18.732  0.00  0.00    +0.000 C 
ATOM      7  H   UNL     1     -12.069  -7.878  16.991  0.00  0.00    +0.000 HD
ATOM      8  H   UNL     1     -11.382  -5.547  17.248  0.00  0.00    +0.000 HD
ATOM      9  H   UNL     1     -10.872  -6.144  15.677  0.00  0.00    +0.000 HD
ATOM     10  H   UNL     1      -9.122  -4.778  16.865  0.00  0.00    +0.000 HD
ATOM     11  H   UNL     1      -8.537  -6.415  16.484  0.00  0.00    +0.000 HD
ATOM     12  H   UNL     1      -9.398  -5.288  19.051  0.00  0.00    +0.000 HD
ATOM     13  H   UNL     1      -9.339  -7.249  20.230  0.00  0.00    +0.000 HD
ATOM     14  H   UNL     1      -8.698  -8.144  18.832  0.00  0.00    +0.000 HD
ATOM     15  H   UNL     1     -11.518  -6.994  19.196  0.00  0.00    +0.000 HD
ATOM     16  H   UNL     1     -11.098  -8.689  19.137  0.00  0.00    +0.000 HD
ENDROOT
BRANCH   1  17
ATOM     17  C   UNL     1     -10.159  -8.716  16.446  0.00  0.00    +0.000 C 
ATOM     18  H   UNL     1     -10.834  -9.379  15.888  0.00  0.00    +0.000 HD
ATOM     19  H   UNL     1      -9.536  -8.225  15.690  0.00  0.00    +0.000 HD
BRANCH  17  20
ATOM     20  C   UNL     1      -9.253  -9.563  17.346  0.00  0.00    +0.000 C 
ATOM     21  H   UNL     1      -8.280  -9.081  17.484  0.00  0.00    +0.000 HD
ATOM     22  H   UNL     1      -9.695  -9.656  18.345  0.00  0.00    +0.000 HD
BRANCH  20  26
ATOM     23  C   UNL     1      -8.622 -13.503  15.665  0.00  0.00    +0.000 A 
ATOM     24  C   UNL     1      -8.635 -13.320  17.051  0.00  0.00    +0.000 A 
ATOM     25  C   UNL     1      -8.830 -12.048  17.596  0.00  0.00    +0.000 A 
ATOM     26  C   UNL     1      -9.021 -10.937  16.763  0.00  0.00    +0.000 A 
ATOM     27  C   UNL     1      -8.988 -11.119  15.377  0.00  0.00    +0.000 A 
ATOM     28  C   UNL     1      -8.793 -12.391  14.833  0.00  0.00    +0.000 A 
ATOM     29  H   UNL     1      -8.507 -14.173  17.715  0.00  0.00    +0.000 HD
ATOM     30  H   UNL     1      -8.850 -11.941  18.678  0.00  0.00    +0.000 HD
ATOM     31  H   UNL     1      -9.130 -10.276  14.704  0.00  0.00    +0.000 HD
ATOM     32  H   UNL     1      -8.788 -12.513  13.751  0.00  0.00    +0.000 HD
BRANCH  23  33
ATOM     33  C   UNL     1      -8.447 -14.866  15.061  0.00  0.00    +0.000 C 
ATOM     34  H   UNL     1      -8.643 -14.858  13.983  0.00  0.00    +0.000 HD
ATOM     35  H   UNL     1      -9.138 -15.577  15.524  0.00  0.00    +0.000 HD
ATOM     36  H   UNL     1      -7.419 -15.213  15.211  0.00  0.00    +0.000 HD
ENDBRANCH  23  33
ENDBRANCH  20  26
ENDBRANCH  17  20
ENDBRANCH   1  17
BRANCH   4  37
ATOM     37  C   UNL     1      -7.434  -5.876  18.797  0.00  0.00    +0.000 C 
ATOM     38  H   UNL     1      -6.999  -5.497  17.865  0.00  0.00    +0.000 HD
ATOM     39  H   UNL     1      -7.027  -6.873  19.000  0.00  0.00    +0.000 HD
BRANCH  37  40
ATOM     40  C   UNL     1      -7.102  -4.968  19.958  0.00  0.00    +0.000 A 
ATOM     41  N   UNL     1      -5.818  -4.641  20.108  0.00  0.00    +0.000 NA
ATOM     42  C   UNL     1      -5.553  -3.943  21.202  0.00  0.00    +0.000 A 
ATOM     43  N   UNL     1      -4.246  -3.574  21.418  0.00  0.00    +0.000 N 
ATOM     44  N   UNL     1      -6.450  -3.584  22.106  0.00  0.00    +0.000 NA
ATOM     45  C   UNL     1      -7.690  -3.986  21.880  0.00  0.00    +0.000 A 
ATOM     46  N   UNL     1      -8.647  -3.665  22.816  0.00  0.00    +0.000 N 
ATOM     47  N   UNL     1      -8.074  -4.682  20.823  0.00  0.00    +0.000 NA
ATOM     48  H   UNL     1      -3.717  -3.474  20.564  0.00  0.00    +0.000 HD
ATOM     49  H   UNL     1      -4.186  -2.808  22.079  0.00  0.00    +0.000 HD
ATOM     50  H   UNL     1      -8.362  -2.886  23.397  0.00  0.00    +0.000 HD
ATOM     51  H   UNL     1      -9.582  -3.639  22.440  0.00  0.00    +0.000 HD
ENDBRANCH  37  40
ENDBRANCH   4  37
TORSDOF 6
ENDMDL
MODEL 9
REMARK VINA RESULT:    -9.983      3.343      5.085
REMARK INTER + INTRA:         -13.987
REMARK INTER:                 -13.300
REMARK INTRA:                  -0.687
REMARK UNBOUND:                -0.794
REMARK  Name = 
REMARK  6 active torsions:
REMARK  status: ('A' for Active; 'I' for Inactive)
REMARK    1  A    between atoms: C_1  and  C_2
REMARK    2  A    between atoms: C_5  and  C_6
REMARK    3  A    between atoms: C_6  and  C_7
REMARK    4  A    between atoms: C_7  and  C_8
REMARK    5  A    between atoms: N_11  and  C_12
REMARK    6  A    between atoms: C_12  and  C_13
REMARK                            x       y       z     vdW  Elec       q    Type
REMARK                         _______ _______ _______ _____ _____    ______ ____
ROOT
ATOM      1  C   UNL     1      -8.472  -7.518  17.009  0.00  0.00    +0.000 C 
ATOM      2  C   UNL     1      -8.101  -6.508  18.103  0.00  0.00    +0.000 C 
ATOM      3  C   UNL     1      -9.272  -5.615  18.488  0.00  0.00    +0.000 C 
ATOM      4  N   UNL     1      -9.876  -4.946  17.270  0.00  0.00    +0.000 N 
ATOM      5  C   UNL     1     -10.094  -5.818  16.061  0.00  0.00    +0.000 C 
ATOM      6  C   UNL     1      -8.894  -6.707  15.780  0.00  0.00    +0.000 C 
ATOM      7  H   UNL     1      -7.573  -8.092  16.753  0.00  0.00    +0.000 HD
ATOM      8  H   UNL     1      -7.272  -5.880  17.747  0.00  0.00    +0.000 HD
ATOM      9  H   UNL     1      -7.729  -7.031  18.992  0.00  0.00    +0.000 HD
ATOM     10  H   UNL     1      -8.925  -4.822  19.158  0.00  0.00    +0.000 HD
ATOM     11  H   UNL     1     -10.063  -6.179  18.991  0.00  0.00    +0.000 HD
ATOM     12  H   UNL     1      -9.229  -4.184  17.010  0.00  0.00    +0.000 HD
ATOM     13  H   UNL     1     -10.274  -5.146  15.214  0.00  0.00    +0.000 HD
ATOM     14  H   UNL     1     -10.998  -6.411  16.234  0.00  0.00    +0.000 HD
ATOM     15  H   UNL     1      -8.050  -6.084  15.453  0.00  0.00    +0.000 HD
ATOM     16  H   UNL     1      -9.115  -7.368  14.935  0.00  0.00    +0.000 HD
ENDROOT
BRANCH   1  17
ATOM     17  C   UNL     1      -9.547  -8.516  17.508  0.00  0.00    +0.000 C 
ATOM     18  H   UNL     1     -10.260  -7.971  18.142  0.00  0.00    +0.000 HD
ATOM     19  H   UNL     1     -10.136  -8.905  16.670  0.00  0.00    +0.000 HD
BRANCH  17  20
ATOM     20  C   UNL     1      -8.979  -9.701  18.295  0.00  0.00    +0.000 C 
ATOM     21  H   UNL     1      -7.989  -9.464  18.696  0.00  0.00    +0.000 HD
ATOM     22  H   UNL     1      -9.617  -9.918  19.162  0.00  0.00    +0.000 HD
BRANCH  20  26
ATOM     23  C   UNL     1      -8.666 -13.234  15.812  0.00  0.00    +0.000 A 
ATOM     24  C   UNL     1      -8.504 -13.328  17.198  0.00  0.00    +0.000 A 
ATOM     25  C   UNL     1      -8.596 -12.187  18.001  0.00  0.00    +0.000 A 
ATOM     26  C   UNL     1      -8.857 -10.933  17.432  0.00  0.00    +0.000 A 
ATOM     27  C   UNL     1      -8.999 -10.839  16.043  0.00  0.00    +0.000 A 
ATOM     28  C   UNL     1      -8.906 -11.979  15.242  0.00  0.00    +0.000 A 
ATOM     29  H   UNL     1      -8.319 -14.296  17.662  0.00  0.00    +0.000 HD
ATOM     30  H   UNL     1      -8.481 -12.296  19.077  0.00  0.00    +0.000 HD
ATOM     31  H   UNL     1      -9.199  -9.880  15.571  0.00  0.00    +0.000 HD
ATOM     32  H   UNL     1      -9.037 -11.886  14.165  0.00  0.00    +0.000 HD
BRANCH  23  33
ATOM     33  C   UNL     1      -8.602 -14.452  14.937  0.00  0.00    +0.000 C 
ATOM     34  H   UNL     1      -8.918 -14.228  13.913  0.00  0.00    +0.000 HD
ATOM     35  H   UNL     1      -9.258 -15.235  15.330  0.00  0.00    +0.000 HD
ATOM     36  H   UNL     1      -7.575 -14.830  14.895  0.00  0.00    +0.000 HD
ENDBRANCH  23  33
ENDBRANCH  20  26
ENDBRANCH  17  20
ENDBRANCH   1  17
BRANCH   4  37
ATOM     37  C   UNL     1     -11.195  -4.240  17.643  0.00  0.00    +0.000 C 
ATOM     38  H   UNL     1     -11.265  -4.257  18.737  0.00  0.00    +0.000 HD
ATOM     39  H   UNL     1     -12.005  -4.850  17.226  0.00  0.00    +0.000 HD
BRANCH  37  40
ATOM     40  C   UNL     1     -11.324  -2.830  17.114  0.00  0.00    +0.000 A 
ATOM     41  N   UNL     1     -12.539  -2.456  16.713  0.00  0.00    +0.000 NA
ATOM     42  C   UNL     1     -12.587  -1.259  16.148  0.00  0.00    +0.000 A 
ATOM     43  N   UNL     1     -13.812  -0.812  15.711  0.00  0.00    +0.000 N 
ATOM     44  N   UNL     1     -11.543  -0.467  15.965  0.00  0.00    +0.000 NA
ATOM     45  C   UNL     1     -10.378  -0.946  16.369  0.00  0.00    +0.000 A 
ATOM     46  N   UNL     1      -9.261  -0.168  16.163  0.00  0.00    +0.000 N 
ATOM     47  N   UNL     1     -10.209  -2.122  16.949  0.00  0.00    +0.000 NA
ATOM     48  H   UNL     1     -14.584  -1.203  16.231  0.00  0.00    +0.000 HD
ATOM     49  H   UNL     1     -13.812   0.194  15.588  0.00  0.00    +0.000 HD
ATOM     50  H   UNL     1      -9.499   0.807  16.028  0.00  0.00    +0.000 HD
ATOM     51  H   UNL     1      -8.507  -0.373  16.800  0.00  0.00    +0.000 HD
ENDBRANCH  37  40
ENDBRANCH   4  37
TORSDOF 6
ENDMDL
