REMARK  Name = 
REMARK  7 active torsions:
REMARK  status: ('A' for Active; 'I' for Inactive)
REMARK    1  A    between atoms: C_1  and  C_2
REMARK    2  A    between atoms: C_11  and  C_12
REMARK    3  A    between atoms: N_14  and  C_15
REMARK    4  A    between atoms: C_19  and  C_20
REMARK    5  A    between atoms: C_20  and  C_21
REMARK    6  A    between atoms: C_20  and  C_22
REMARK    7  A    between atoms: C_20  and  C_23
REMARK                            x       y       z     vdW  Elec       q    Type
REMARK                         _______ _______ _______ _____ _____    ______ ____
ROOT
ATOM      1  C   UNL     1       1.442   0.022   0.094  0.00  0.00    +0.000 A 
ATOM      2  C   UNL     1       1.485  -1.100   0.934  0.00  0.00    +0.000 A 
ATOM      3  C   UNL     1       0.925  -1.071   2.214  0.00  0.00    +0.000 A 
ATOM      4  C   UNL     1       0.462   0.132   2.711  0.00  0.00    +0.000 A 
ATOM      5  C   UNL     1      -0.018   0.391   4.096  0.00  0.00    +0.000 A 
ATOM      6  C   UNL     1       1.104   0.639   4.804  0.00  0.00    +0.000 A 
ATOM      7  C   UNL     1       1.688   1.958   4.295  0.00  0.00    +0.000 A 
ATOM      8  O   UNL     1       2.329   2.665   5.048  0.00  0.00    +0.000 OA
ATOM      9  N   UNL     1       1.501   2.235   2.947  0.00  0.00    +0.000 N 
ATOM     10  C   UNL     1       0.975   1.261   2.066  0.00  0.00    +0.000 A 
ATOM     11  C   UNL     1       1.247   1.262   0.699  0.00  0.00    +0.000 A 
ATOM     12  H   UNL     1       1.963  -2.022   0.621  0.00  0.00    +0.000 HD
ATOM     13  H   UNL     1       0.954  -1.972   2.822  0.00  0.00    +0.000 HD
ATOM     14  H   UNL     1       1.927  -0.077   4.799  0.00  0.00    +0.000 HD
ATOM     15  H   UNL     1       1.986   3.057   2.589  0.00  0.00    +0.000 HD
ATOM     16  H   UNL     1       1.393   2.194   0.168  0.00  0.00    +0.000 HD
ENDROOT
BRANCH   1  19
ATOM     17  C   UNL     1       1.666  -1.308  -1.989  0.00  0.00    +0.000 C 
ATOM     18  O   UNL     1       1.701  -2.413  -1.443  0.00  0.00    +0.000 OA
ATOM     19  N   UNL     1       1.623  -0.090  -1.312  0.00  0.00    +0.000 N 
ATOM     20  H   UNL     1       1.489   0.745  -1.875  0.00  0.00    +0.000 HD
BRANCH  17  30
ATOM     21  C   UNL     1       1.393  -2.589  -4.130  0.00  0.00    +0.000 C 
ATOM     22  O   UNL     1      -0.014  -2.852  -4.001  0.00  0.00    +0.000 OA
ATOM     23  C   UNL     1      -0.788  -1.743  -4.222  0.00  0.00    +0.000 A 
ATOM     24  C   UNL     1      -2.153  -1.965  -4.378  0.00  0.00    +0.000 A 
ATOM     25  C   UNL     1      -2.998  -0.900  -4.687  0.00  0.00    +0.000 A 
ATOM     26  C   UNL     1      -2.474   0.383  -4.844  0.00  0.00    +0.000 A 
ATOM     27  C   UNL     1      -1.108   0.609  -4.656  0.00  0.00    +0.000 A 
ATOM     28  C   UNL     1      -0.269  -0.453  -4.314  0.00  0.00    +0.000 A 
ATOM     29  O   UNL     1       1.046  -0.141  -4.101  0.00  0.00    +0.000 OA
ATOM     30  C   UNL     1       1.772  -1.221  -3.523  0.00  0.00    +0.000 C 
ATOM     31  H   UNL     1       1.902  -3.394  -3.584  0.00  0.00    +0.000 HD
ATOM     32  H   UNL     1      -2.557  -2.969  -4.272  0.00  0.00    +0.000 HD
ATOM     33  H   UNL     1      -4.063  -1.073  -4.821  0.00  0.00    +0.000 HD
ATOM     34  H   UNL     1      -3.128   1.210  -5.108  0.00  0.00    +0.000 HD
ATOM     35  H   UNL     1      -0.701   1.608  -4.776  0.00  0.00    +0.000 HD
ATOM     36  H   UNL     1       2.834  -1.033  -3.724  0.00  0.00    +0.000 HD
BRANCH  21  37
ATOM     37  C   UNL     1       1.797  -2.746  -5.594  0.00  0.00    +0.000 C 
ATOM     38  H   UNL     1       1.530  -3.750  -5.945  0.00  0.00    +0.000 HD
ATOM     39  H   UNL     1       2.875  -2.611  -5.722  0.00  0.00    +0.000 HD
ATOM     40  H   UNL     1       1.272  -2.040  -6.244  0.00  0.00    +0.000 HD
ENDBRANCH  21  37
ENDBRANCH  17  30
ENDBRANCH   1  19
BRANCH   5  41
ATOM     41  C   UNL     1      -1.304   1.275   4.342  0.00  0.00    +0.000 C 
BRANCH  41  42
ATOM     42  C   UNL     1      -2.587   0.482   4.024  0.00  0.00    +0.000 C 
ATOM     43  H   UNL     1      -2.660  -0.434   4.619  0.00  0.00    +0.000 HD
ATOM     44  H   UNL     1      -2.647   0.216   2.964  0.00  0.00    +0.000 HD
ATOM     45  H   UNL     1      -3.478   1.086   4.252  0.00  0.00    +0.000 HD
ENDBRANCH  41  42
BRANCH  41  46
ATOM     46  C   UNL     1      -1.380   1.674   5.843  0.00  0.00    +0.000 C 
ATOM     47  H   UNL     1      -1.423   0.793   6.492  0.00  0.00    +0.000 HD
ATOM     48  H   UNL     1      -2.268   2.283   6.048  0.00  0.00    +0.000 HD
ATOM     49  H   UNL     1      -0.516   2.278   6.148  0.00  0.00    +0.000 HD
ENDBRANCH  41  46
BRANCH  41  50
ATOM     50  C   UNL     1      -1.405   2.609   3.553  0.00  0.00    +0.000 C 
ATOM     51  H   UNL     1      -1.385   2.458   2.469  0.00  0.00    +0.000 HD
ATOM     52  H   UNL     1      -0.612   3.312   3.830  0.00  0.00    +0.000 HD
ATOM     53  H   UNL     1      -2.344   3.129   3.776  0.00  0.00    +0.000 HD
ENDBRANCH  41  50
ENDBRANCH   5  41
TORSDOF 7
