MODEL 1
REMARK VINA RESULT:    -7.639      0.000      0.000
REMARK INTER + INTRA:         -11.125
REMARK INTER:                 -12.105
REMARK INTRA:                   0.981
REMARK UNBOUND:                 0.981
REMARK  Name = 
REMARK  13 active torsions:
REMARK  status: ('A' for Active; 'I' for Inactive)
REMARK    1  A    between atoms: C_1  and  C_2
REMARK    2  A    between atoms: C_2  and  C_3
REMARK    3  A    between atoms: C_2  and  C_4
REMARK    4  A    between atoms: C_2  and  N_5
REMARK    5  A    between atoms: N_8  and  C_9
REMARK    6  A    between atoms: C_9  and  C_10
REMARK    7  A    between atoms: C_10  and  C_11
REMARK    8  A    between atoms: C_14  and  N_15
REMARK    9  A    between atoms: C_16  and  O_18
REMARK   10  A    between atoms: O_18  and  C_19
REMARK   11  A    between atoms: C_19  and  C_20
REMARK   12  A    between atoms: C_19  and  C_21
REMARK   13  A    between atoms: C_19  and  C_22
REMARK                            x       y       z     vdW  Elec       q    Type
REMARK                         _______ _______ _______ _____ _____    ______ ____
ROOT
ATOM      1  C   UNL     1      -8.547  -6.062  18.824  0.00  0.00    +0.000 A 
ATOM      2  C   UNL     1      -8.378  -6.464  17.502  0.00  0.00    +0.000 A 
ATOM      3  C   UNL     1      -8.575  -7.779  17.117  0.00  0.00    +0.000 A 
ATOM      4  C   UNL     1      -8.892  -8.779  18.026  0.00  0.00    +0.000 A 
ATOM      5  C   UNL     1      -9.021  -8.407  19.369  0.00  0.00    +0.000 A 
ATOM      6  C   UNL     1      -8.850  -7.057  19.765  0.00  0.00    +0.000 A 
ATOM      7  H   UNL     1      -8.103  -5.795  16.696  0.00  0.00    +0.000 HD
ATOM      8  H   UNL     1      -8.459  -7.944  16.054  0.00  0.00    +0.000 HD
ATOM      9  H   UNL     1      -9.254  -9.148  20.130  0.00  0.00    +0.000 HD
ATOM     10  H   UNL     1      -8.960  -6.801  20.818  0.00  0.00    +0.000 HD
ENDROOT
BRANCH   4  11
ATOM     11  N   UNL     1      -9.084 -10.122  17.608  0.00  0.00    +0.000 N 
ATOM     12  C   UNL     1      -9.818 -10.477  16.492  0.00  0.00    +0.000 C 
ATOM     13  O   UNL     1     -10.354  -9.698  15.716  0.00  0.00    +0.000 OA
ATOM     14  H   UNL     1      -8.676 -10.878  18.142  0.00  0.00    +0.000 HD
BRANCH  12  15
ATOM     15  O   UNL     1      -9.916 -11.828  16.343  0.00  0.00    +0.000 OA
BRANCH  15  16
ATOM     16  C   UNL     1      -8.721 -12.489  15.821  0.00  0.00    +0.000 C 
BRANCH  16  17
ATOM     17  C   UNL     1      -7.860 -11.533  14.969  0.00  0.00    +0.000 C 
ATOM     18  H   UNL     1      -7.473 -12.049  14.084  0.00  0.00    +0.000 HD
ATOM     19  H   UNL     1      -6.986 -11.141  15.494  0.00  0.00    +0.000 HD
ATOM     20  H   UNL     1      -8.438 -10.661  14.644  0.00  0.00    +0.000 HD
ENDBRANCH  16  17
BRANCH  16  21
ATOM     21  C   UNL     1      -7.880 -12.902  17.036  0.00  0.00    +0.000 C 
ATOM     22  H   UNL     1      -8.339 -12.558  17.968  0.00  0.00    +0.000 HD
ATOM     23  H   UNL     1      -6.871 -12.482  16.974  0.00  0.00    +0.000 HD
ATOM     24  H   UNL     1      -7.798 -13.992  17.104  0.00  0.00    +0.000 HD
ENDBRANCH  16  21
BRANCH  16  25
ATOM     25  C   UNL     1      -9.096 -13.775  15.058  0.00  0.00    +0.000 C 
ATOM     26  H   UNL     1     -10.162 -14.012  15.108  0.00  0.00    +0.000 HD
ATOM     27  H   UNL     1      -8.575 -14.639  15.487  0.00  0.00    +0.000 HD
ATOM     28  H   UNL     1      -8.837 -13.700  13.998  0.00  0.00    +0.000 HD
ENDBRANCH  16  25
ENDBRANCH  15  16
ENDBRANCH  12  15
ENDBRANCH   4  11
BRANCH   1  29
ATOM     29  C   UNL     1      -8.378  -4.599  19.191  0.00  0.00    +0.000 C 
ATOM     30  H   UNL     1      -7.904  -4.054  18.367  0.00  0.00    +0.000 HD
ATOM     31  H   UNL     1      -9.365  -4.155  19.362  0.00  0.00    +0.000 HD
BRANCH  29  32
ATOM     32  C   UNL     1      -7.512  -4.457  20.451  0.00  0.00    +0.000 C 
ATOM     33  H   UNL     1      -6.852  -5.322  20.545  0.00  0.00    +0.000 HD
ATOM     34  H   UNL     1      -6.917  -3.539  20.363  0.00  0.00    +0.000 HD
BRANCH  32  38
ATOM     35  N   UNL     1      -9.160  -3.191  23.468  0.00  0.00    +0.000 N 
ATOM     36  C   UNL     1      -8.495  -3.211  22.301  0.00  0.00    +0.000 C 
ATOM     37  N   UNL     1      -8.114  -2.065  21.705  0.00  0.00    +0.000 N 
ATOM     38  N   UNL     1      -8.214  -4.412  21.727  0.00  0.00    +0.000 N 
ATOM     39  H   UNL     1      -9.150  -4.053  23.999  0.00  0.00    +0.000 HD
ATOM     40  H   UNL     1      -8.200  -1.176  22.175  0.00  0.00    +0.000 HD
ATOM     41  H   UNL     1      -7.663  -2.040  20.802  0.00  0.00    +0.000 HD
ATOM     42  H   UNL     1      -8.519  -5.264  22.182  0.00  0.00    +0.000 HD
BRANCH  35  43
ATOM     43  C   UNL     1     -10.035  -2.095  23.992  0.00  0.00    +0.000 C 
BRANCH  43  44
ATOM     44  C   UNL     1     -10.703  -1.312  22.846  0.00  0.00    +0.000 C 
ATOM     45  H   UNL     1     -10.097  -0.452  22.547  0.00  0.00    +0.000 HD
ATOM     46  H   UNL     1     -11.688  -0.944  23.156  0.00  0.00    +0.000 HD
ATOM     47  H   UNL     1     -10.854  -1.915  21.948  0.00  0.00    +0.000 HD
ENDBRANCH  43  44
BRANCH  43  48
ATOM     48  C   UNL     1      -9.236  -1.153  24.899  0.00  0.00    +0.000 C 
ATOM     49  H   UNL     1      -8.538  -1.713  25.531  0.00  0.00    +0.000 HD
ATOM     50  H   UNL     1      -9.883  -0.570  25.561  0.00  0.00    +0.000 HD
ATOM     51  H   UNL     1      -8.657  -0.436  24.306  0.00  0.00    +0.000 HD
ENDBRANCH  43  48
BRANCH  43  52
ATOM     52  C   UNL     1     -11.152  -2.760  24.813  0.00  0.00    +0.000 C 
ATOM     53  H   UNL     1     -10.809  -3.026  25.818  0.00  0.00    +0.000 HD
ATOM     54  H   UNL     1     -11.512  -3.670  24.320  0.00  0.00    +0.000 HD
ATOM     55  H   UNL     1     -12.009  -2.085  24.912  0.00  0.00    +0.000 HD
ENDBRANCH  43  52
ENDBRANCH  35  43
ENDBRANCH  32  38
ENDBRANCH  29  32
ENDBRANCH   1  29
TORSDOF 13
ENDMDL
MODEL 2
REMARK VINA RESULT:    -7.593      2.423      3.676
REMARK INTER + INTRA:         -11.051
REMARK INTER:                 -12.008
REMARK INTRA:                   0.957
REMARK UNBOUND:                 0.981
REMARK  Name = 
REMARK  13 active torsions:
REMARK  status: ('A' for Active; 'I' for Inactive)
REMARK    1  A    between atoms: C_1  and  C_2
REMARK    2  A    between atoms: C_2  and  C_3
REMARK    3  A    between atoms: C_2  and  C_4
REMARK    4  A    between atoms: C_2  and  N_5
REMARK    5  A    between atoms: N_8  and  C_9
REMARK    6  A    between atoms: C_9  and  C_10
REMARK    7  A    between atoms: C_10  and  C_11
REMARK    8  A    between atoms: C_14  and  N_15
REMARK    9  A    between atoms: C_16  and  O_18
REMARK   10  A    between atoms: O_18  and  C_19
REMARK   11  A    between atoms: C_19  and  C_20
REMARK   12  A    between atoms: C_19  and  C_21
REMARK   13  A    between atoms: C_19  and  C_22
REMARK                            x       y       z     vdW  Elec       q    Type
REMARK                         _______ _______ _______ _____ _____    ______ ____
ROOT
ATOM      1  C   UNL     1      -6.391  -4.478  20.694  0.00  0.00    +0.000 A 
ATOM      2  C   UNL     1      -5.499  -5.242  19.946  0.00  0.00    +0.000 A 
ATOM      3  C   UNL     1      -5.906  -5.923  18.812  0.00  0.00    +0.000 A 
ATOM      4  C   UNL     1      -7.228  -5.935  18.388  0.00  0.00    +0.000 A 
ATOM      5  C   UNL     1      -8.152  -5.212  19.149  0.00  0.00    +0.000 A 
ATOM      6  C   UNL     1      -7.736  -4.488  20.295  0.00  0.00    +0.000 A 
ATOM      7  H   UNL     1      -4.447  -5.345  20.181  0.00  0.00    +0.000 HD
ATOM      8  H   UNL     1      -5.103  -6.436  18.300  0.00  0.00    +0.000 HD
ATOM      9  H   UNL     1      -9.204  -5.194  18.875  0.00  0.00    +0.000 HD
ATOM     10  H   UNL     1      -8.481  -3.934  20.864  0.00  0.00    +0.000 HD
ENDROOT
BRANCH   4  11
ATOM     11  N   UNL     1      -7.622  -6.645  17.223  0.00  0.00    +0.000 N 
ATOM     12  C   UNL     1      -8.871  -7.217  17.065  0.00  0.00    +0.000 C 
ATOM     13  O   UNL     1      -9.789  -7.156  17.870  0.00  0.00    +0.000 OA
ATOM     14  H   UNL     1      -6.972  -6.756  16.457  0.00  0.00    +0.000 HD
BRANCH  12  15
ATOM     15  O   UNL     1      -8.982  -7.903  15.893  0.00  0.00    +0.000 OA
BRANCH  15  16
ATOM     16  C   UNL     1      -9.556  -9.243  16.003  0.00  0.00    +0.000 C 
BRANCH  16  17
ATOM     17  C   UNL     1     -11.098  -9.207  16.054  0.00  0.00    +0.000 C 
ATOM     18  H   UNL     1     -11.518  -9.289  15.047  0.00  0.00    +0.000 HD
ATOM     19  H   UNL     1     -11.502  -8.282  16.474  0.00  0.00    +0.000 HD
ATOM     20  H   UNL     1     -11.493 -10.022  16.670  0.00  0.00    +0.000 HD
ENDBRANCH  16  17
BRANCH  16  21
ATOM     21  C   UNL     1      -9.158  -9.998  14.728  0.00  0.00    +0.000 C 
ATOM     22  H   UNL     1      -8.627  -9.342  14.031  0.00  0.00    +0.000 HD
ATOM     23  H   UNL     1     -10.042 -10.398  14.218  0.00  0.00    +0.000 HD
ATOM     24  H   UNL     1      -8.486 -10.831  14.958  0.00  0.00    +0.000 HD
ENDBRANCH  16  21
BRANCH  16  25
ATOM     25  C   UNL     1      -8.949 -10.003  17.198  0.00  0.00    +0.000 C 
ATOM     26  H   UNL     1      -9.311  -9.646  18.166  0.00  0.00    +0.000 HD
ATOM     27  H   UNL     1      -7.860  -9.875  17.220  0.00  0.00    +0.000 HD
ATOM     28  H   UNL     1      -9.176 -11.072  17.150  0.00  0.00    +0.000 HD
ENDBRANCH  16  25
ENDBRANCH  15  16
ENDBRANCH  12  15
ENDBRANCH   4  11
BRANCH   1  29
ATOM     29  C   UNL     1      -5.890  -3.701  21.897  0.00  0.00    +0.000 C 
ATOM     30  H   UNL     1      -5.383  -4.374  22.597  0.00  0.00    +0.000 HD
ATOM     31  H   UNL     1      -5.161  -2.954  21.563  0.00  0.00    +0.000 HD
BRANCH  29  32
ATOM     32  C   UNL     1      -7.057  -3.012  22.617  0.00  0.00    +0.000 C 
ATOM     33  H   UNL     1      -7.976  -3.144  22.043  0.00  0.00    +0.000 HD
ATOM     34  H   UNL     1      -7.168  -3.464  23.612  0.00  0.00    +0.000 HD
BRANCH  32  38
ATOM     35  N   UNL     1      -7.898   0.451  23.469  0.00  0.00    +0.000 N 
ATOM     36  C   UNL     1      -8.017  -0.876  23.296  0.00  0.00    +0.000 C 
ATOM     37  N   UNL     1      -9.157  -1.514  23.619  0.00  0.00    +0.000 N 
ATOM     38  N   UNL     1      -6.959  -1.568  22.793  0.00  0.00    +0.000 N 
ATOM     39  H   UNL     1      -7.159   0.902  22.943  0.00  0.00    +0.000 HD
ATOM     40  H   UNL     1      -9.990  -1.003  23.872  0.00  0.00    +0.000 HD
ATOM     41  H   UNL     1      -9.262  -2.516  23.556  0.00  0.00    +0.000 HD
ATOM     42  H   UNL     1      -6.103  -1.076  22.567  0.00  0.00    +0.000 HD
BRANCH  35  43
ATOM     43  C   UNL     1      -8.630   1.304  24.458  0.00  0.00    +0.000 C 
BRANCH  43  44
ATOM     44  C   UNL     1      -8.890   0.544  25.771  0.00  0.00    +0.000 C 
ATOM     45  H   UNL     1      -8.522   1.107  26.635  0.00  0.00    +0.000 HD
ATOM     46  H   UNL     1      -8.385  -0.429  25.757  0.00  0.00    +0.000 HD
ATOM     47  H   UNL     1      -9.950   0.352  25.952  0.00  0.00    +0.000 HD
ENDBRANCH  43  44
BRANCH  43  48
ATOM     48  C   UNL     1      -9.944   1.819  23.858  0.00  0.00    +0.000 C 
ATOM     49  H   UNL     1     -10.577   2.272  24.629  0.00  0.00    +0.000 HD
ATOM     50  H   UNL     1     -10.522   1.021  23.385  0.00  0.00    +0.000 HD
ATOM     51  H   UNL     1      -9.753   2.574  23.088  0.00  0.00    +0.000 HD
ENDBRANCH  43  48
BRANCH  43  52
ATOM     52  C   UNL     1      -7.721   2.500  24.784  0.00  0.00    +0.000 C 
ATOM     53  H   UNL     1      -6.662   2.236  24.702  0.00  0.00    +0.000 HD
ATOM     54  H   UNL     1      -7.907   2.869  25.799  0.00  0.00    +0.000 HD
ATOM     55  H   UNL     1      -7.920   3.331  24.097  0.00  0.00    +0.000 HD
ENDBRANCH  43  52
ENDBRANCH  35  43
ENDBRANCH  32  38
ENDBRANCH  29  32
ENDBRANCH   1  29
TORSDOF 13
ENDMDL
MODEL 3
REMARK VINA RESULT:    -7.527      2.282      3.526
REMARK INTER + INTRA:         -10.946
REMARK INTER:                 -10.943
REMARK INTRA:                  -0.003
REMARK UNBOUND:                 0.981
REMARK  Name = 
REMARK  13 active torsions:
REMARK  status: ('A' for Active; 'I' for Inactive)
REMARK    1  A    between atoms: C_1  and  C_2
REMARK    2  A    between atoms: C_2  and  C_3
REMARK    3  A    between atoms: C_2  and  C_4
REMARK    4  A    between atoms: C_2  and  N_5
REMARK    5  A    between atoms: N_8  and  C_9
REMARK    6  A    between atoms: C_9  and  C_10
REMARK    7  A    between atoms: C_10  and  C_11
REMARK    8  A    between atoms: C_14  and  N_15
REMARK    9  A    between atoms: C_16  and  O_18
REMARK   10  A    between atoms: O_18  and  C_19
REMARK   11  A    between atoms: C_19  and  C_20
REMARK   12  A    between atoms: C_19  and  C_21
REMARK   13  A    between atoms: C_19  and  C_22
REMARK                            x       y       z     vdW  Elec       q    Type
REMARK                         _______ _______ _______ _____ _____    ______ ____
ROOT
ATOM      1  C   UNL     1     -10.351  -2.733  18.440  0.00  0.00    +0.000 A 
ATOM      2  C   UNL     1      -9.261  -3.317  19.080  0.00  0.00    +0.000 A 
ATOM      3  C   UNL     1      -9.009  -4.673  18.983  0.00  0.00    +0.000 A 
ATOM      4  C   UNL     1      -9.851  -5.538  18.297  0.00  0.00    +0.000 A 
ATOM      5  C   UNL     1     -10.980  -4.982  17.685  0.00  0.00    +0.000 A 
ATOM      6  C   UNL     1     -11.227  -3.588  17.755  0.00  0.00    +0.000 A 
ATOM      7  H   UNL     1      -8.541  -2.765  19.672  0.00  0.00    +0.000 HD
ATOM      8  H   UNL     1      -8.104  -4.986  19.486  0.00  0.00    +0.000 HD
ATOM      9  H   UNL     1     -11.684  -5.609  17.144  0.00  0.00    +0.000 HD
ATOM     10  H   UNL     1     -12.114  -3.187  17.265  0.00  0.00    +0.000 HD
ENDROOT
BRANCH   4  11
ATOM     11  N   UNL     1      -9.574  -6.928  18.215  0.00  0.00    +0.000 N 
ATOM     12  C   UNL     1      -8.898  -7.511  17.159  0.00  0.00    +0.000 C 
ATOM     13  O   UNL     1      -8.428  -6.915  16.200  0.00  0.00    +0.000 OA
ATOM     14  H   UNL     1      -9.882  -7.546  18.953  0.00  0.00    +0.000 HD
BRANCH  12  15
ATOM     15  O   UNL     1      -8.820  -8.866  17.277  0.00  0.00    +0.000 OA
BRANCH  15  16
ATOM     16  C   UNL     1      -9.556  -9.626  16.269  0.00  0.00    +0.000 C 
BRANCH  16  17
ATOM     17  C   UNL     1      -8.813  -9.658  14.917  0.00  0.00    +0.000 C 
ATOM     18  H   UNL     1      -7.747  -9.451  15.059  0.00  0.00    +0.000 HD
ATOM     19  H   UNL     1      -9.171  -8.915  14.201  0.00  0.00    +0.000 HD
ATOM     20  H   UNL     1      -8.921 -10.632  14.428  0.00  0.00    +0.000 HD
ENDBRANCH  16  17
BRANCH  16  21
ATOM     21  C   UNL     1      -9.638 -11.071  16.781  0.00  0.00    +0.000 C 
ATOM     22  H   UNL     1      -8.701 -11.374  17.258  0.00  0.00    +0.000 HD
ATOM     23  H   UNL     1      -9.847 -11.765  15.960  0.00  0.00    +0.000 HD
ATOM     24  H   UNL     1     -10.427 -11.177  17.532  0.00  0.00    +0.000 HD
ENDBRANCH  16  21
BRANCH  16  25
ATOM     25  C   UNL     1     -10.998  -9.101  16.132  0.00  0.00    +0.000 C 
ATOM     26  H   UNL     1     -11.756  -9.849  16.382  0.00  0.00    +0.000 HD
ATOM     27  H   UNL     1     -11.200  -8.804  15.096  0.00  0.00    +0.000 HD
ATOM     28  H   UNL     1     -11.175  -8.241  16.784  0.00  0.00    +0.000 HD
ENDBRANCH  16  25
ENDBRANCH  15  16
ENDBRANCH  12  15
ENDBRANCH   4  11
BRANCH   1  29
ATOM     29  C   UNL     1     -10.557  -1.232  18.526  0.00  0.00    +0.000 C 
ATOM     30  H   UNL     1      -9.594  -0.723  18.640  0.00  0.00    +0.000 HD
ATOM     31  H   UNL     1     -11.015  -0.878  17.595  0.00  0.00    +0.000 HD
BRANCH  29  32
ATOM     32  C   UNL     1     -11.456  -0.880  19.721  0.00  0.00    +0.000 C 
ATOM     33  H   UNL     1     -12.013   0.035  19.507  0.00  0.00    +0.000 HD
ATOM     34  H   UNL     1     -12.152  -1.711  19.889  0.00  0.00    +0.000 HD
BRANCH  32  38
ATOM     35  N   UNL     1     -10.324  -1.158  23.194  0.00  0.00    +0.000 N 
ATOM     36  C   UNL     1     -10.966  -1.427  22.045  0.00  0.00    +0.000 C 
ATOM     37  N   UNL     1     -11.769  -2.502  21.940  0.00  0.00    +0.000 N 
ATOM     38  N   UNL     1     -10.787  -0.595  20.983  0.00  0.00    +0.000 N 
ATOM     39  H   UNL     1      -9.991  -0.207  23.303  0.00  0.00    +0.000 HD
ATOM     40  H   UNL     1     -12.013  -3.055  22.748  0.00  0.00    +0.000 HD
ATOM     41  H   UNL     1     -12.222  -2.767  21.077  0.00  0.00    +0.000 HD
ATOM     42  H   UNL     1     -10.169   0.202  21.074  0.00  0.00    +0.000 HD
BRANCH  35  43
ATOM     43  C   UNL     1      -9.915  -2.134  24.252  0.00  0.00    +0.000 C 
BRANCH  43  44
ATOM     44  C   UNL     1      -8.895  -3.154  23.712  0.00  0.00    +0.000 C 
ATOM     45  H   UNL     1      -9.070  -4.150  24.131  0.00  0.00    +0.000 HD
ATOM     46  H   UNL     1      -7.874  -2.850  23.971  0.00  0.00    +0.000 HD
ATOM     47  H   UNL     1      -8.932  -3.261  22.626  0.00  0.00    +0.000 HD
ENDBRANCH  43  44
BRANCH  43  48
ATOM     48  C   UNL     1     -11.141  -2.847  24.832  0.00  0.00    +0.000 C 
ATOM     49  H   UNL     1     -10.947  -3.916  24.970  0.00  0.00    +0.000 HD
ATOM     50  H   UNL     1     -12.017  -2.754  24.185  0.00  0.00    +0.000 HD
ATOM     51  H   UNL     1     -11.417  -2.423  25.804  0.00  0.00    +0.000 HD
ENDBRANCH  43  48
BRANCH  43  52
ATOM     52  C   UNL     1      -9.223  -1.331  25.366  0.00  0.00    +0.000 C 
ATOM     53  H   UNL     1      -9.945  -0.949  26.095  0.00  0.00    +0.000 HD
ATOM     54  H   UNL     1      -8.670  -0.482  24.950  0.00  0.00    +0.000 HD
ATOM     55  H   UNL     1      -8.500  -1.959  25.898  0.00  0.00    +0.000 HD
ENDBRANCH  43  52
ENDBRANCH  35  43
ENDBRANCH  32  38
ENDBRANCH  29  32
ENDBRANCH   1  29
TORSDOF 13
ENDMDL
MODEL 4
REMARK VINA RESULT:    -7.513      1.104      1.530
REMARK INTER + INTRA:         -10.924
REMARK INTER:                 -11.402
REMARK INTRA:                   0.478
REMARK UNBOUND:                 0.981
REMARK  Name = 
REMARK  13 active torsions:
REMARK  status: ('A' for Active; 'I' for Inactive)
REMARK    1  A    between atoms: C_1  and  C_2
REMARK    2  A    between atoms: C_2  and  C_3
REMARK    3  A    between atoms: C_2  and  C_4
REMARK    4  A    between atoms: C_2  and  N_5
REMARK    5  A    between atoms: N_8  and  C_9
REMARK    6  A    between atoms: C_9  and  C_10
REMARK    7  A    between atoms: C_10  and  C_11
REMARK    8  A    between atoms: C_14  and  N_15
REMARK    9  A    between atoms: C_16  and  O_18
REMARK   10  A    between atoms: O_18  and  C_19
REMARK   11  A    between atoms: C_19  and  C_20
REMARK   12  A    between atoms: C_19  and  C_21
REMARK   13  A    between atoms: C_19  and  C_22
REMARK                            x       y       z     vdW  Elec       q    Type
REMARK                         _______ _______ _______ _____ _____    ______ ____
ROOT
ATOM      1  C   UNL     1      -9.463  -5.573  18.291  0.00  0.00    +0.000 A 
ATOM      2  C   UNL     1      -8.409  -6.291  17.731  0.00  0.00    +0.000 A 
ATOM      3  C   UNL     1      -8.613  -7.520  17.129  0.00  0.00    +0.000 A 
ATOM      4  C   UNL     1      -9.857  -8.135  17.099  0.00  0.00    +0.000 A 
ATOM      5  C   UNL     1     -10.923  -7.455  17.698  0.00  0.00    +0.000 A 
ATOM      6  C   UNL     1     -10.727  -6.181  18.289  0.00  0.00    +0.000 A 
ATOM      7  H   UNL     1      -7.384  -5.943  17.712  0.00  0.00    +0.000 HD
ATOM      8  H   UNL     1      -7.719  -7.945  16.692  0.00  0.00    +0.000 HD
ATOM      9  H   UNL     1     -11.919  -7.891  17.718  0.00  0.00    +0.000 HD
ATOM     10  H   UNL     1     -11.579  -5.678  18.744  0.00  0.00    +0.000 HD
ENDROOT
BRANCH   4  11
ATOM     11  N   UNL     1     -10.041  -9.400  16.480  0.00  0.00    +0.000 N 
ATOM     12  C   UNL     1      -9.662 -10.596  17.060  0.00  0.00    +0.000 C 
ATOM     13  O   UNL     1      -9.165 -10.722  18.170  0.00  0.00    +0.000 OA
ATOM     14  H   UNL     1     -10.465  -9.454  15.564  0.00  0.00    +0.000 HD
BRANCH  12  15
ATOM     15  O   UNL     1      -9.878 -11.662  16.239  0.00  0.00    +0.000 OA
BRANCH  15  16
ATOM     16  C   UNL     1      -8.691 -12.447  15.905  0.00  0.00    +0.000 C 
BRANCH  16  17
ATOM     17  C   UNL     1      -8.013 -13.029  17.164  0.00  0.00    +0.000 C 
ATOM     18  H   UNL     1      -8.688 -13.721  17.679  0.00  0.00    +0.000 HD
ATOM     19  H   UNL     1      -7.736 -12.274  17.903  0.00  0.00    +0.000 HD
ATOM     20  H   UNL     1      -7.091 -13.561  16.907  0.00  0.00    +0.000 HD
ENDBRANCH  16  17
BRANCH  16  21
ATOM     21  C   UNL     1      -9.171 -13.631  15.055  0.00  0.00    +0.000 C 
ATOM     22  H   UNL     1      -8.452 -13.862  14.261  0.00  0.00    +0.000 HD
ATOM     23  H   UNL     1     -10.138 -13.412  14.590  0.00  0.00    +0.000 HD
ATOM     24  H   UNL     1      -9.277 -14.534  15.663  0.00  0.00    +0.000 HD
ENDBRANCH  16  21
BRANCH  16  25
ATOM     25  C   UNL     1      -7.714 -11.624  15.043  0.00  0.00    +0.000 C 
ATOM     26  H   UNL     1      -7.977 -10.564  14.984  0.00  0.00    +0.000 HD
ATOM     27  H   UNL     1      -7.712 -11.991  14.010  0.00  0.00    +0.000 HD
ATOM     28  H   UNL     1      -6.694 -11.676  15.435  0.00  0.00    +0.000 HD
ENDBRANCH  16  25
ENDBRANCH  15  16
ENDBRANCH  12  15
ENDBRANCH   4  11
BRANCH   1  29
ATOM     29  C   UNL     1      -9.204  -4.203  18.890  0.00  0.00    +0.000 C 
ATOM     30  H   UNL     1      -8.950  -3.487  18.101  0.00  0.00    +0.000 HD
ATOM     31  H   UNL     1     -10.117  -3.848  19.382  0.00  0.00    +0.000 HD
BRANCH  29  32
ATOM     32  C   UNL     1      -8.051  -4.267  19.902  0.00  0.00    +0.000 C 
ATOM     33  H   UNL     1      -7.547  -5.233  19.827  0.00  0.00    +0.000 HD
ATOM     34  H   UNL     1      -7.345  -3.458  19.676  0.00  0.00    +0.000 HD
BRANCH  32  38
ATOM     35  N   UNL     1      -8.823  -2.873  23.201  0.00  0.00    +0.000 N 
ATOM     36  C   UNL     1      -8.472  -2.945  21.906  0.00  0.00    +0.000 C 
ATOM     37  N   UNL     1      -8.190  -1.831  21.206  0.00  0.00    +0.000 N 
ATOM     38  N   UNL     1      -8.409  -4.167  21.311  0.00  0.00    +0.000 N 
ATOM     39  H   UNL     1      -8.728  -3.730  23.734  0.00  0.00    +0.000 HD
ATOM     40  H   UNL     1      -8.107  -0.933  21.660  0.00  0.00    +0.000 HD
ATOM     41  H   UNL     1      -7.978  -1.842  20.218  0.00  0.00    +0.000 HD
ATOM     42  H   UNL     1      -8.637  -4.995  21.848  0.00  0.00    +0.000 HD
BRANCH  35  43
ATOM     43  C   UNL     1      -9.479  -1.722  23.898  0.00  0.00    +0.000 C 
BRANCH  43  44
ATOM     44  C   UNL     1     -10.796  -1.323  23.207  0.00  0.00    +0.000 C 
ATOM     45  H   UNL     1     -10.715  -0.338  22.737  0.00  0.00    +0.000 HD
ATOM     46  H   UNL     1     -11.615  -1.287  23.936  0.00  0.00    +0.000 HD
ATOM     47  H   UNL     1     -11.095  -2.020  22.422  0.00  0.00    +0.000 HD
ENDBRANCH  43  44
BRANCH  43  48
ATOM     48  C   UNL     1      -8.524  -0.526  23.980  0.00  0.00    +0.000 C 
ATOM     49  H   UNL     1      -9.000   0.325  24.480  0.00  0.00    +0.000 HD
ATOM     50  H   UNL     1      -8.202  -0.187  22.992  0.00  0.00    +0.000 HD
ATOM     51  H   UNL     1      -7.618  -0.786  24.539  0.00  0.00    +0.000 HD
ENDBRANCH  43  48
BRANCH  43  52
ATOM     52  C   UNL     1      -9.823  -2.192  25.321  0.00  0.00    +0.000 C 
ATOM     53  H   UNL     1      -9.024  -1.950  26.030  0.00  0.00    +0.000 HD
ATOM     54  H   UNL     1      -9.992  -3.274  25.346  0.00  0.00    +0.000 HD
ATOM     55  H   UNL     1     -10.745  -1.713  25.669  0.00  0.00    +0.000 HD
ENDBRANCH  43  52
ENDBRANCH  35  43
ENDBRANCH  32  38
ENDBRANCH  29  32
ENDBRANCH   1  29
TORSDOF 13
ENDMDL
MODEL 5
REMARK VINA RESULT:    -7.389      4.186     10.760
REMARK INTER + INTRA:         -10.728
REMARK INTER:                 -11.026
REMARK INTRA:                   0.298
REMARK UNBOUND:                 0.981
REMARK  Name = 
REMARK  13 active torsions:
REMARK  status: ('A' for Active; 'I' for Inactive)
REMARK    1  A    between atoms: C_1  and  C_2
REMARK    2  A    between atoms: C_2  and  C_3
REMARK    3  A    between atoms: C_2  and  C_4
REMARK    4  A    between atoms: C_2  and  N_5
REMARK    5  A    between atoms: N_8  and  C_9
REMARK    6  A    between atoms: C_9  and  C_10
REMARK    7  A    between atoms: C_10  and  C_11
REMARK    8  A    between atoms: C_14  and  N_15
REMARK    9  A    between atoms: C_16  and  O_18
REMARK   10  A    between atoms: O_18  and  C_19
REMARK   11  A    between atoms: C_19  and  C_20
REMARK   12  A    between atoms: C_19  and  C_21
REMARK   13  A    between atoms: C_19  and  C_22
REMARK                            x       y       z     vdW  Elec       q    Type
REMARK                         _______ _______ _______ _____ _____    ______ ____
ROOT
ATOM      1  C   UNL     1      -7.539  -4.115  20.837  0.00  0.00    +0.000 A 
ATOM      2  C   UNL     1      -8.541  -3.291  20.330  0.00  0.00    +0.000 A 
ATOM      3  C   UNL     1      -8.803  -2.049  20.881  0.00  0.00    +0.000 A 
ATOM      4  C   UNL     1      -8.129  -1.577  21.999  0.00  0.00    +0.000 A 
ATOM      5  C   UNL     1      -7.150  -2.406  22.556  0.00  0.00    +0.000 A 
ATOM      6  C   UNL     1      -6.857  -3.667  21.978  0.00  0.00    +0.000 A 
ATOM      7  H   UNL     1      -9.162  -3.548  19.480  0.00  0.00    +0.000 HD
ATOM      8  H   UNL     1      -9.571  -1.494  20.360  0.00  0.00    +0.000 HD
ATOM      9  H   UNL     1      -6.598  -2.097  23.440  0.00  0.00    +0.000 HD
ATOM     10  H   UNL     1      -6.086  -4.287  22.435  0.00  0.00    +0.000 HD
ENDROOT
BRANCH   4  11
ATOM     11  N   UNL     1      -8.419  -0.301  22.550  0.00  0.00    +0.000 N 
ATOM     12  C   UNL     1      -9.546  -0.032  23.305  0.00  0.00    +0.000 C 
ATOM     13  O   UNL     1     -10.400  -0.847  23.620  0.00  0.00    +0.000 OA
ATOM     14  H   UNL     1      -7.784   0.471  22.392  0.00  0.00    +0.000 HD
BRANCH  12  15
ATOM     15  O   UNL     1      -9.633   1.281  23.658  0.00  0.00    +0.000 OA
BRANCH  15  16
ATOM     16  C   UNL     1      -8.942   1.645  24.893  0.00  0.00    +0.000 C 
BRANCH  16  17
ATOM     17  C   UNL     1      -7.630   2.409  24.616  0.00  0.00    +0.000 C 
ATOM     18  H   UNL     1      -6.811   1.995  25.213  0.00  0.00    +0.000 HD
ATOM     19  H   UNL     1      -7.678   3.471  24.867  0.00  0.00    +0.000 HD
ATOM     20  H   UNL     1      -7.357   2.356  23.556  0.00  0.00    +0.000 HD
ENDBRANCH  16  17
BRANCH  16  21
ATOM     21  C   UNL     1      -9.874   2.597  25.655  0.00  0.00    +0.000 C 
ATOM     22  H   UNL     1      -9.988   2.286  26.698  0.00  0.00    +0.000 HD
ATOM     23  H   UNL     1     -10.867   2.625  25.193  0.00  0.00    +0.000 HD
ATOM     24  H   UNL     1      -9.470   3.615  25.668  0.00  0.00    +0.000 HD
ENDBRANCH  16  21
BRANCH  16  25
ATOM     25  C   UNL     1      -8.720   0.406  25.783  0.00  0.00    +0.000 C 
ATOM     26  H   UNL     1      -9.652  -0.064  26.109  0.00  0.00    +0.000 HD
ATOM     27  H   UNL     1      -8.187   0.684  26.699  0.00  0.00    +0.000 HD
ATOM     28  H   UNL     1      -8.143  -0.363  25.260  0.00  0.00    +0.000 HD
ENDBRANCH  16  25
ENDBRANCH  15  16
ENDBRANCH  12  15
ENDBRANCH   4  11
BRANCH   1  29
ATOM     29  C   UNL     1      -7.248  -5.444  20.166  0.00  0.00    +0.000 C 
ATOM     30  H   UNL     1      -6.495  -5.316  19.381  0.00  0.00    +0.000 HD
ATOM     31  H   UNL     1      -6.841  -6.140  20.909  0.00  0.00    +0.000 HD
BRANCH  29  32
ATOM     32  C   UNL     1      -8.526  -6.026  19.546  0.00  0.00    +0.000 C 
ATOM     33  H   UNL     1      -8.920  -6.818  20.186  0.00  0.00    +0.000 HD
ATOM     34  H   UNL     1      -9.265  -5.219  19.451  0.00  0.00    +0.000 HD
BRANCH  32  38
ATOM     35  N   UNL     1      -8.746  -8.486  16.841  0.00  0.00    +0.000 N 
ATOM     36  C   UNL     1      -8.861  -7.926  18.056  0.00  0.00    +0.000 C 
ATOM     37  N   UNL     1      -9.435  -8.596  19.072  0.00  0.00    +0.000 N 
ATOM     38  N   UNL     1      -8.392  -6.662  18.242  0.00  0.00    +0.000 N 
ATOM     39  H   UNL     1      -8.058  -8.070  16.224  0.00  0.00    +0.000 HD
ATOM     40  H   UNL     1      -9.672  -9.573  18.988  0.00  0.00    +0.000 HD
ATOM     41  H   UNL     1      -9.590  -8.186  19.983  0.00  0.00    +0.000 HD
ATOM     42  H   UNL     1      -7.975  -6.166  17.464  0.00  0.00    +0.000 HD
BRANCH  35  43
ATOM     43  C   UNL     1      -9.617  -9.550  16.248  0.00  0.00    +0.000 C 
BRANCH  43  44
ATOM     44  C   UNL     1     -11.087  -9.097  16.179  0.00  0.00    +0.000 C 
ATOM     45  H   UNL     1     -11.343  -8.729  15.181  0.00  0.00    +0.000 HD
ATOM     46  H   UNL     1     -11.274  -8.291  16.899  0.00  0.00    +0.000 HD
ATOM     47  H   UNL     1     -11.792  -9.900  16.407  0.00  0.00    +0.000 HD
ENDBRANCH  43  44
BRANCH  43  48
ATOM     48  C   UNL     1      -9.486 -10.857  17.037  0.00  0.00    +0.000 C 
ATOM     49  H   UNL     1      -9.708 -11.723  16.404  0.00  0.00    +0.000 HD
ATOM     50  H   UNL     1     -10.167 -10.892  17.892  0.00  0.00    +0.000 HD
ATOM     51  H   UNL     1      -8.472 -10.975  17.433  0.00  0.00    +0.000 HD
ENDBRANCH  43  48
BRANCH  43  52
ATOM     52  C   UNL     1      -9.133  -9.779  14.807  0.00  0.00    +0.000 C 
ATOM     53  H   UNL     1      -9.871 -10.332  14.217  0.00  0.00    +0.000 HD
ATOM     54  H   UNL     1      -8.191 -10.339  14.794  0.00  0.00    +0.000 HD
ATOM     55  H   UNL     1      -8.946  -8.821  14.309  0.00  0.00    +0.000 HD
ENDBRANCH  43  52
ENDBRANCH  35  43
ENDBRANCH  32  38
ENDBRANCH  29  32
ENDBRANCH   1  29
TORSDOF 13
ENDMDL
MODEL 6
REMARK VINA RESULT:    -7.344      1.342      1.697
REMARK INTER + INTRA:         -10.657
REMARK INTER:                 -11.432
REMARK INTRA:                   0.775
REMARK UNBOUND:                 0.981
REMARK  Name = 
REMARK  13 active torsions:
REMARK  status: ('A' for Active; 'I' for Inactive)
REMARK    1  A    between atoms: C_1  and  C_2
REMARK    2  A    between atoms: C_2  and  C_3
REMARK    3  A    between atoms: C_2  and  C_4
REMARK    4  A    between atoms: C_2  and  N_5
REMARK    5  A    between atoms: N_8  and  C_9
REMARK    6  A    between atoms: C_9  and  C_10
REMARK    7  A    between atoms: C_10  and  C_11
REMARK    8  A    between atoms: C_14  and  N_15
REMARK    9  A    between atoms: C_16  and  O_18
REMARK   10  A    between atoms: O_18  and  C_19
REMARK   11  A    between atoms: C_19  and  C_20
REMARK   12  A    between atoms: C_19  and  C_21
REMARK   13  A    between atoms: C_19  and  C_22
REMARK                            x       y       z     vdW  Elec       q    Type
REMARK                         _______ _______ _______ _____ _____    ______ ____
ROOT
ATOM      1  C   UNL     1      -6.981  -5.866  19.713  0.00  0.00    +0.000 A 
ATOM      2  C   UNL     1      -6.790  -5.919  18.334  0.00  0.00    +0.000 A 
ATOM      3  C   UNL     1      -7.557  -6.744  17.531  0.00  0.00    +0.000 A 
ATOM      4  C   UNL     1      -8.514  -7.605  18.050  0.00  0.00    +0.000 A 
ATOM      5  C   UNL     1      -8.691  -7.605  19.438  0.00  0.00    +0.000 A 
ATOM      6  C   UNL     1      -7.930  -6.740  20.264  0.00  0.00    +0.000 A 
ATOM      7  H   UNL     1      -6.059  -5.323  17.802  0.00  0.00    +0.000 HD
ATOM      8  H   UNL     1      -7.339  -6.651  16.475  0.00  0.00    +0.000 HD
ATOM      9  H   UNL     1      -9.416  -8.267  19.905  0.00  0.00    +0.000 HD
ATOM     10  H   UNL     1      -8.095  -6.763  21.340  0.00  0.00    +0.000 HD
ENDROOT
BRANCH   4  11
ATOM     11  N   UNL     1      -9.285  -8.447  17.206  0.00  0.00    +0.000 N 
ATOM     12  C   UNL     1      -9.234  -9.828  17.252  0.00  0.00    +0.000 C 
ATOM     13  O   UNL     1      -8.562 -10.489  18.031  0.00  0.00    +0.000 OA
ATOM     14  H   UNL     1      -9.910  -8.039  16.524  0.00  0.00    +0.000 HD
BRANCH  12  15
ATOM     15  O   UNL     1     -10.012 -10.408  16.295  0.00  0.00    +0.000 OA
BRANCH  15  16
ATOM     16  C   UNL     1      -9.327 -10.741  15.047  0.00  0.00    +0.000 C 
BRANCH  16  17
ATOM     17  C   UNL     1     -10.139 -10.303  13.811  0.00  0.00    +0.000 C 
ATOM     18  H   UNL     1      -9.662 -10.659  12.891  0.00  0.00    +0.000 HD
ATOM     19  H   UNL     1     -10.228  -9.220  13.703  0.00  0.00    +0.000 HD
ATOM     20  H   UNL     1     -11.162 -10.692  13.850  0.00  0.00    +0.000 HD
ENDBRANCH  16  17
BRANCH  16  21
ATOM     21  C   UNL     1      -8.015  -9.946  15.039  0.00  0.00    +0.000 C 
ATOM     22  H   UNL     1      -7.889  -9.384  15.970  0.00  0.00    +0.000 HD
ATOM     23  H   UNL     1      -7.992  -9.238  14.203  0.00  0.00    +0.000 HD
ATOM     24  H   UNL     1      -7.152 -10.613  14.950  0.00  0.00    +0.000 HD
ENDBRANCH  16  21
BRANCH  16  25
ATOM     25  C   UNL     1      -8.961 -12.238  15.006  0.00  0.00    +0.000 C 
ATOM     26  H   UNL     1      -7.889 -12.418  14.883  0.00  0.00    +0.000 HD
ATOM     27  H   UNL     1      -9.448 -12.728  14.155  0.00  0.00    +0.000 HD
ATOM     28  H   UNL     1      -9.264 -12.749  15.925  0.00  0.00    +0.000 HD
ENDBRANCH  16  25
ENDBRANCH  15  16
ENDBRANCH  12  15
ENDBRANCH   4  11
BRANCH   1  29
ATOM     29  C   UNL     1      -6.157  -4.904  20.548  0.00  0.00    +0.000 C 
ATOM     30  H   UNL     1      -5.783  -5.407  21.447  0.00  0.00    +0.000 HD
ATOM     31  H   UNL     1      -5.291  -4.573  19.965  0.00  0.00    +0.000 HD
BRANCH  29  32
ATOM     32  C   UNL     1      -7.004  -3.692  20.966  0.00  0.00    +0.000 C 
ATOM     33  H   UNL     1      -6.386  -2.985  21.524  0.00  0.00    +0.000 HD
ATOM     34  H   UNL     1      -7.396  -3.213  20.060  0.00  0.00    +0.000 HD
BRANCH  32  38
ATOM     35  N   UNL     1      -9.446  -3.343  23.674  0.00  0.00    +0.000 N 
ATOM     36  C   UNL     1      -8.393  -3.095  22.878  0.00  0.00    +0.000 C 
ATOM     37  N   UNL     1      -7.614  -2.017  23.082  0.00  0.00    +0.000 N 
ATOM     38  N   UNL     1      -8.128  -3.953  21.856  0.00  0.00    +0.000 N 
ATOM     39  H   UNL     1      -9.797  -4.294  23.662  0.00  0.00    +0.000 HD
ATOM     40  H   UNL     1      -7.718  -1.443  23.905  0.00  0.00    +0.000 HD
ATOM     41  H   UNL     1      -6.849  -1.768  22.470  0.00  0.00    +0.000 HD
ATOM     42  H   UNL     1      -8.732  -4.753  21.707  0.00  0.00    +0.000 HD
BRANCH  35  43
ATOM     43  C   UNL     1     -10.248  -2.345  24.452  0.00  0.00    +0.000 C 
BRANCH  43  44
ATOM     44  C   UNL     1     -10.498  -1.065  23.633  0.00  0.00    +0.000 C 
ATOM     45  H   UNL     1     -11.438  -1.129  23.075  0.00  0.00    +0.000 HD
ATOM     46  H   UNL     1      -9.685  -0.905  22.914  0.00  0.00    +0.000 HD
ATOM     47  H   UNL     1     -10.561  -0.168  24.251  0.00  0.00    +0.000 HD
ENDBRANCH  43  44
BRANCH  43  48
ATOM     48  C   UNL     1      -9.556  -2.015  25.779  0.00  0.00    +0.000 C 
ATOM     49  H   UNL     1      -9.987  -2.596  26.602  0.00  0.00    +0.000 HD
ATOM     50  H   UNL     1      -9.649  -0.958  26.040  0.00  0.00    +0.000 HD
ATOM     51  H   UNL     1      -8.485  -2.238  25.728  0.00  0.00    +0.000 HD
ENDBRANCH  43  48
BRANCH  43  52
ATOM     52  C   UNL     1     -11.614  -2.989  24.740  0.00  0.00    +0.000 C 
ATOM     53  H   UNL     1     -11.531  -3.800  25.470  0.00  0.00    +0.000 HD
ATOM     54  H   UNL     1     -12.058  -3.392  23.823  0.00  0.00    +0.000 HD
ATOM     55  H   UNL     1     -12.312  -2.242  25.135  0.00  0.00    +0.000 HD
ENDBRANCH  43  52
ENDBRANCH  35  43
ENDBRANCH  32  38
ENDBRANCH  29  32
ENDBRANCH   1  29
TORSDOF 13
ENDMDL
MODEL 7
REMARK VINA RESULT:    -7.314      2.219      3.372
REMARK INTER + INTRA:         -10.609
REMARK INTER:                 -10.783
REMARK INTRA:                   0.174
REMARK UNBOUND:                 0.981
REMARK  Name = 
REMARK  13 active torsions:
REMARK  status: ('A' for Active; 'I' for Inactive)
REMARK    1  A    between atoms: C_1  and  C_2
REMARK    2  A    between atoms: C_2  and  C_3
REMARK    3  A    between atoms: C_2  and  C_4
REMARK    4  A    between atoms: C_2  and  N_5
REMARK    5  A    between atoms: N_8  and  C_9
REMARK    6  A    between atoms: C_9  and  C_10
REMARK    7  A    between atoms: C_10  and  C_11
REMARK    8  A    between atoms: C_14  and  N_15
REMARK    9  A    between atoms: C_16  and  O_18
REMARK   10  A    between atoms: O_18  and  C_19
REMARK   11  A    between atoms: C_19  and  C_20
REMARK   12  A    between atoms: C_19  and  C_21
REMARK   13  A    between atoms: C_19  and  C_22
REMARK                            x       y       z     vdW  Elec       q    Type
REMARK                         _______ _______ _______ _____ _____    ______ ____
ROOT
ATOM      1  C   UNL     1     -10.542  -3.162  18.787  0.00  0.00    +0.000 A 
ATOM      2  C   UNL     1     -11.346  -4.063  18.093  0.00  0.00    +0.000 A 
ATOM      3  C   UNL     1     -10.938  -5.365  17.864  0.00  0.00    +0.000 A 
ATOM      4  C   UNL     1      -9.692  -5.833  18.257  0.00  0.00    +0.000 A 
ATOM      5  C   UNL     1      -8.847  -4.932  18.915  0.00  0.00    +0.000 A 
ATOM      6  C   UNL     1      -9.271  -3.605  19.179  0.00  0.00    +0.000 A 
ATOM      7  H   UNL     1     -12.328  -3.822  17.704  0.00  0.00    +0.000 HD
ATOM      8  H   UNL     1     -11.678  -5.971  17.358  0.00  0.00    +0.000 HD
ATOM      9  H   UNL     1      -7.854  -5.235  19.236  0.00  0.00    +0.000 HD
ATOM     10  H   UNL     1      -8.590  -2.931  19.696  0.00  0.00    +0.000 HD
ENDROOT
BRANCH   4  11
ATOM     11  N   UNL     1      -9.294  -7.173  18.007  0.00  0.00    +0.000 N 
ATOM     12  C   UNL     1      -8.892  -7.631  16.766  0.00  0.00    +0.000 C 
ATOM     13  O   UNL     1      -8.793  -6.951  15.755  0.00  0.00    +0.000 OA
ATOM     14  H   UNL     1      -9.300  -7.848  18.760  0.00  0.00    +0.000 HD
BRANCH  12  15
ATOM     15  O   UNL     1      -8.629  -8.968  16.767  0.00  0.00    +0.000 OA
BRANCH  15  16
ATOM     16  C   UNL     1      -9.617  -9.802  16.086  0.00  0.00    +0.000 C 
BRANCH  16  17
ATOM     17  C   UNL     1      -9.194 -10.131  14.639  0.00  0.00    +0.000 C 
ATOM     18  H   UNL     1      -8.292  -9.573  14.366  0.00  0.00    +0.000 HD
ATOM     19  H   UNL     1      -9.946  -9.870  13.891  0.00  0.00    +0.000 HD
ATOM     20  H   UNL     1      -8.998 -11.201  14.517  0.00  0.00    +0.000 HD
ENDBRANCH  16  17
BRANCH  16  21
ATOM     21  C   UNL     1      -9.681 -11.127  16.857  0.00  0.00    +0.000 C 
ATOM     22  H   UNL     1     -10.439 -11.793  16.431  0.00  0.00    +0.000 HD
ATOM     23  H   UNL     1      -9.926 -10.956  17.910  0.00  0.00    +0.000 HD
ATOM     24  H   UNL     1      -8.725 -11.658  16.806  0.00  0.00    +0.000 HD
ENDBRANCH  16  21
BRANCH  16  25
ATOM     25  C   UNL     1     -11.016  -9.159  16.154  0.00  0.00    +0.000 C 
ATOM     26  H   UNL     1     -11.780  -9.729  15.618  0.00  0.00    +0.000 HD
ATOM     27  H   UNL     1     -11.004  -8.165  15.692  0.00  0.00    +0.000 HD
ATOM     28  H   UNL     1     -11.361  -9.061  17.188  0.00  0.00    +0.000 HD
ENDBRANCH  16  25
ENDBRANCH  15  16
ENDBRANCH  12  15
ENDBRANCH   4  11
BRANCH   1  29
ATOM     29  C   UNL     1     -11.053  -1.760  19.065  0.00  0.00    +0.000 C 
ATOM     30  H   UNL     1     -10.217  -1.053  19.102  0.00  0.00    +0.000 HD
ATOM     31  H   UNL     1     -11.716  -1.452  18.249  0.00  0.00    +0.000 HD
BRANCH  29  32
ATOM     32  C   UNL     1     -11.808  -1.717  20.402  0.00  0.00    +0.000 C 
ATOM     33  H   UNL     1     -12.848  -1.431  20.229  0.00  0.00    +0.000 HD
ATOM     34  H   UNL     1     -11.765  -2.715  20.858  0.00  0.00    +0.000 HD
BRANCH  32  38
ATOM     35  N   UNL     1     -10.130  -0.270  23.319  0.00  0.00    +0.000 N 
ATOM     36  C   UNL     1     -10.570  -1.176  22.431  0.00  0.00    +0.000 C 
ATOM     37  N   UNL     1     -10.254  -2.478  22.561  0.00  0.00    +0.000 N 
ATOM     38  N   UNL     1     -11.338  -0.755  21.390  0.00  0.00    +0.000 N 
ATOM     39  H   UNL     1     -10.634   0.610  23.341  0.00  0.00    +0.000 HD
ATOM     40  H   UNL     1      -9.796  -2.826  23.390  0.00  0.00    +0.000 HD
ATOM     41  H   UNL     1     -10.519  -3.178  21.883  0.00  0.00    +0.000 HD
ATOM     42  H   UNL     1     -11.556   0.230  21.298  0.00  0.00    +0.000 HD
BRANCH  35  43
ATOM     43  C   UNL     1      -8.898  -0.354  24.165  0.00  0.00    +0.000 C 
BRANCH  43  44
ATOM     44  C   UNL     1      -8.571   1.001  24.819  0.00  0.00    +0.000 C 
ATOM     45  H   UNL     1      -7.827   1.554  24.236  0.00  0.00    +0.000 HD
ATOM     46  H   UNL     1      -8.171   0.852  25.829  0.00  0.00    +0.000 HD
ATOM     47  H   UNL     1      -9.443   1.652  24.911  0.00  0.00    +0.000 HD
ENDBRANCH  43  44
BRANCH  43  48
ATOM     48  C   UNL     1      -7.710  -0.860  23.338  0.00  0.00    +0.000 C 
ATOM     49  H   UNL     1      -8.047  -1.309  22.398  0.00  0.00    +0.000 HD
ATOM     50  H   UNL     1      -7.128  -1.615  23.872  0.00  0.00    +0.000 HD
ATOM     51  H   UNL     1      -7.024  -0.040  23.097  0.00  0.00    +0.000 HD
ENDBRANCH  43  48
BRANCH  43  52
ATOM     52  C   UNL     1      -9.191  -1.357  25.293  0.00  0.00    +0.000 C 
ATOM     53  H   UNL     1      -8.279  -1.640  25.828  0.00  0.00    +0.000 HD
ATOM     54  H   UNL     1      -9.656  -2.266  24.897  0.00  0.00    +0.000 HD
ATOM     55  H   UNL     1      -9.891  -0.924  26.016  0.00  0.00    +0.000 HD
ENDBRANCH  43  52
ENDBRANCH  35  43
ENDBRANCH  32  38
ENDBRANCH  29  32
ENDBRANCH   1  29
TORSDOF 13
ENDMDL
MODEL 8
REMARK VINA RESULT:    -7.074      2.661      3.621
REMARK INTER + INTRA:         -10.229
REMARK INTER:                 -10.522
REMARK INTRA:                   0.293
REMARK UNBOUND:                 0.981
REMARK  Name = 
REMARK  13 active torsions:
REMARK  status: ('A' for Active; 'I' for Inactive)
REMARK    1  A    between atoms: C_1  and  C_2
REMARK    2  A    between atoms: C_2  and  C_3
REMARK    3  A    between atoms: C_2  and  C_4
REMARK    4  A    between atoms: C_2  and  N_5
REMARK    5  A    between atoms: N_8  and  C_9
REMARK    6  A    between atoms: C_9  and  C_10
REMARK    7  A    between atoms: C_10  and  C_11
REMARK    8  A    between atoms: C_14  and  N_15
REMARK    9  A    between atoms: C_16  and  O_18
REMARK   10  A    between atoms: O_18  and  C_19
REMARK   11  A    between atoms: C_19  and  C_20
REMARK   12  A    between atoms: C_19  and  C_21
REMARK   13  A    between atoms: C_19  and  C_22
REMARK                            x       y       z     vdW  Elec       q    Type
REMARK                         _______ _______ _______ _____ _____    ______ ____
ROOT
ATOM      1  C   UNL     1     -11.034  -2.627  17.637  0.00  0.00    +0.000 A 
ATOM      2  C   UNL     1      -9.985  -3.528  17.805  0.00  0.00    +0.000 A 
ATOM      3  C   UNL     1     -10.046  -4.811  17.291  0.00  0.00    +0.000 A 
ATOM      4  C   UNL     1     -11.169  -5.294  16.633  0.00  0.00    +0.000 A 
ATOM      5  C   UNL     1     -12.254  -4.423  16.493  0.00  0.00    +0.000 A 
ATOM      6  C   UNL     1     -12.187  -3.097  16.991  0.00  0.00    +0.000 A 
ATOM      7  H   UNL     1      -9.064  -3.292  18.324  0.00  0.00    +0.000 HD
ATOM      8  H   UNL     1      -9.145  -5.388  17.450  0.00  0.00    +0.000 HD
ATOM      9  H   UNL     1     -13.167  -4.748  15.998  0.00  0.00    +0.000 HD
ATOM     10  H   UNL     1     -13.049  -2.444  16.862  0.00  0.00    +0.000 HD
ENDROOT
BRANCH   4  11
ATOM     11  N   UNL     1     -11.210  -6.616  16.118  0.00  0.00    +0.000 N 
ATOM     12  C   UNL     1     -11.144  -7.747  16.910  0.00  0.00    +0.000 C 
ATOM     13  O   UNL     1     -11.080  -7.757  18.131  0.00  0.00    +0.000 OA
ATOM     14  H   UNL     1     -11.288  -6.766  15.121  0.00  0.00    +0.000 HD
BRANCH  12  15
ATOM     15  O   UNL     1     -11.130  -8.895  16.177  0.00  0.00    +0.000 OA
BRANCH  15  16
ATOM     16  C   UNL     1      -9.815  -9.505  15.991  0.00  0.00    +0.000 C 
BRANCH  16  17
ATOM     17  C   UNL     1      -9.607 -10.719  16.920  0.00  0.00    +0.000 C 
ATOM     18  H   UNL     1      -9.617 -11.650  16.345  0.00  0.00    +0.000 HD
ATOM     19  H   UNL     1     -10.383 -10.828  17.682  0.00  0.00    +0.000 HD
ATOM     20  H   UNL     1      -8.656 -10.647  17.459  0.00  0.00    +0.000 HD
ENDBRANCH  16  17
BRANCH  16  21
ATOM     21  C   UNL     1      -9.769 -10.022  14.546  0.00  0.00    +0.000 C 
ATOM     22  H   UNL     1     -10.776 -10.232  14.171  0.00  0.00    +0.000 HD
ATOM     23  H   UNL     1      -9.178 -10.941  14.478  0.00  0.00    +0.000 HD
ATOM     24  H   UNL     1      -9.328  -9.276  13.877  0.00  0.00    +0.000 HD
ENDBRANCH  16  21
BRANCH  16  25
ATOM     25  C   UNL     1      -8.698  -8.455  16.142  0.00  0.00    +0.000 C 
ATOM     26  H   UNL     1      -8.560  -7.838  15.249  0.00  0.00    +0.000 HD
ATOM     27  H   UNL     1      -7.733  -8.945  16.320  0.00  0.00    +0.000 HD
ATOM     28  H   UNL     1      -8.902  -7.770  16.971  0.00  0.00    +0.000 HD
ENDBRANCH  16  25
ENDBRANCH  15  16
ENDBRANCH  12  15
ENDBRANCH   4  11
BRANCH   1  29
ATOM     29  C   UNL     1     -10.901  -1.212  18.168  0.00  0.00    +0.000 C 
ATOM     30  H   UNL     1     -10.556  -0.540  17.374  0.00  0.00    +0.000 HD
ATOM     31  H   UNL     1     -11.884  -0.860  18.500  0.00  0.00    +0.000 HD
BRANCH  29  32
ATOM     32  C   UNL     1      -9.904  -1.166  19.335  0.00  0.00    +0.000 C 
ATOM     33  H   UNL     1      -9.032  -1.780  19.099  0.00  0.00    +0.000 HD
ATOM     34  H   UNL     1      -9.598  -0.123  19.490  0.00  0.00    +0.000 HD
BRANCH  32  38
ATOM     35  N   UNL     1      -9.908  -2.504  22.745  0.00  0.00    +0.000 N 
ATOM     36  C   UNL     1      -9.460  -2.042  21.566  0.00  0.00    +0.000 C 
ATOM     37  N   UNL     1      -8.141  -1.925  21.328  0.00  0.00    +0.000 N 
ATOM     38  N   UNL     1     -10.366  -1.690  20.614  0.00  0.00    +0.000 N 
ATOM     39  H   UNL     1     -10.861  -2.847  22.754  0.00  0.00    +0.000 HD
ATOM     40  H   UNL     1      -7.457  -2.298  21.969  0.00  0.00    +0.000 HD
ATOM     41  H   UNL     1      -7.769  -1.529  20.476  0.00  0.00    +0.000 HD
ATOM     42  H   UNL     1     -11.356  -1.772  20.813  0.00  0.00    +0.000 HD
BRANCH  35  43
ATOM     43  C   UNL     1      -9.214  -2.428  24.069  0.00  0.00    +0.000 C 
BRANCH  43  44
ATOM     44  C   UNL     1      -8.488  -1.081  24.246  0.00  0.00    +0.000 C 
ATOM     45  H   UNL     1      -9.098  -0.251  23.878  0.00  0.00    +0.000 HD
ATOM     46  H   UNL     1      -7.541  -1.081  23.693  0.00  0.00    +0.000 HD
ATOM     47  H   UNL     1      -8.251  -0.857  25.288  0.00  0.00    +0.000 HD
ENDBRANCH  43  44
BRANCH  43  48
ATOM     48  C   UNL     1      -8.237  -3.598  24.235  0.00  0.00    +0.000 C 
ATOM     49  H   UNL     1      -8.503  -4.429  23.573  0.00  0.00    +0.000 HD
ATOM     50  H   UNL     1      -8.225  -3.984  25.258  0.00  0.00    +0.000 HD
ATOM     51  H   UNL     1      -7.213  -3.288  23.999  0.00  0.00    +0.000 HD
ENDBRANCH  43  48
BRANCH  43  52
ATOM     52  C   UNL     1     -10.298  -2.518  25.155  0.00  0.00    +0.000 C 
ATOM     53  H   UNL     1     -11.286  -2.257  24.761  0.00  0.00    +0.000 HD
ATOM     54  H   UNL     1     -10.072  -1.849  25.992  0.00  0.00    +0.000 HD
ATOM     55  H   UNL     1     -10.350  -3.535  25.560  0.00  0.00    +0.000 HD
ENDBRANCH  43  52
ENDBRANCH  35  43
ENDBRANCH  32  38
ENDBRANCH  29  32
ENDBRANCH   1  29
TORSDOF 13
ENDMDL
MODEL 9
REMARK VINA RESULT:    -6.964      4.449      9.513
REMARK INTER + INTRA:         -10.055
REMARK INTER:                 -10.365
REMARK INTRA:                   0.310
REMARK UNBOUND:                 0.981
REMARK  Name = 
REMARK  13 active torsions:
REMARK  status: ('A' for Active; 'I' for Inactive)
REMARK    1  A    between atoms: C_1  and  C_2
REMARK    2  A    between atoms: C_2  and  C_3
REMARK    3  A    between atoms: C_2  and  C_4
REMARK    4  A    between atoms: C_2  and  N_5
REMARK    5  A    between atoms: N_8  and  C_9
REMARK    6  A    between atoms: C_9  and  C_10
REMARK    7  A    between atoms: C_10  and  C_11
REMARK    8  A    between atoms: C_14  and  N_15
REMARK    9  A    between atoms: C_16  and  O_18
REMARK   10  A    between atoms: O_18  and  C_19
REMARK   11  A    between atoms: C_19  and  C_20
REMARK   12  A    between atoms: C_19  and  C_21
REMARK   13  A    between atoms: C_19  and  C_22
REMARK                            x       y       z     vdW  Elec       q    Type
REMARK                         _______ _______ _______ _____ _____    ______ ____
ROOT
ATOM      1  C   UNL     1      -7.996  -5.999  19.019  0.00  0.00    +0.000 A 
ATOM      2  C   UNL     1      -6.886  -5.807  19.838  0.00  0.00    +0.000 A 
ATOM      3  C   UNL     1      -6.779  -4.699  20.661  0.00  0.00    +0.000 A 
ATOM      4  C   UNL     1      -7.734  -3.692  20.676  0.00  0.00    +0.000 A 
ATOM      5  C   UNL     1      -8.835  -3.838  19.827  0.00  0.00    +0.000 A 
ATOM      6  C   UNL     1      -8.965  -4.986  19.003  0.00  0.00    +0.000 A 
ATOM      7  H   UNL     1      -6.055  -6.499  19.902  0.00  0.00    +0.000 HD
ATOM      8  H   UNL     1      -5.892  -4.700  21.280  0.00  0.00    +0.000 HD
ATOM      9  H   UNL     1      -9.610  -3.076  19.784  0.00  0.00    +0.000 HD
ATOM     10  H   UNL     1      -9.837  -5.070  18.355  0.00  0.00    +0.000 HD
ENDROOT
BRANCH   4  11
ATOM     11  N   UNL     1      -7.600  -2.562  21.526  0.00  0.00    +0.000 N 
ATOM     12  C   UNL     1      -7.849  -2.595  22.886  0.00  0.00    +0.000 C 
ATOM     13  O   UNL     1      -8.172  -3.586  23.525  0.00  0.00    +0.000 OA
ATOM     14  H   UNL     1      -7.314  -1.673  21.139  0.00  0.00    +0.000 HD
BRANCH  12  15
ATOM     15  O   UNL     1      -7.720  -1.369  23.467  0.00  0.00    +0.000 OA
BRANCH  15  16
ATOM     16  C   UNL     1      -8.907  -0.876  24.161  0.00  0.00    +0.000 C 
BRANCH  16  17
ATOM     17  C   UNL     1      -9.078  -1.531  25.547  0.00  0.00    +0.000 C 
ATOM     18  H   UNL     1      -8.148  -1.463  26.122  0.00  0.00    +0.000 HD
ATOM     19  H   UNL     1      -9.326  -2.595  25.504  0.00  0.00    +0.000 HD
ATOM     20  H   UNL     1      -9.881  -1.051  26.117  0.00  0.00    +0.000 HD
ENDBRANCH  16  17
BRANCH  16  21
ATOM     21  C   UNL     1      -8.693   0.626  24.387  0.00  0.00    +0.000 C 
ATOM     22  H   UNL     1      -8.969   1.202  23.498  0.00  0.00    +0.000 HD
ATOM     23  H   UNL     1      -7.646   0.840  24.625  0.00  0.00    +0.000 HD
ATOM     24  H   UNL     1      -9.316   0.992  25.210  0.00  0.00    +0.000 HD
ENDBRANCH  16  21
BRANCH  16  25
ATOM     25  C   UNL     1     -10.162  -1.037  23.280  0.00  0.00    +0.000 C 
ATOM     26  H   UNL     1     -10.386  -0.150  22.681  0.00  0.00    +0.000 HD
ATOM     27  H   UNL     1     -11.047  -1.210  23.904  0.00  0.00    +0.000 HD
ATOM     28  H   UNL     1     -10.057  -1.873  22.582  0.00  0.00    +0.000 HD
ENDBRANCH  16  25
ENDBRANCH  15  16
ENDBRANCH  12  15
ENDBRANCH   4  11
BRANCH   1  29
ATOM     29  C   UNL     1      -8.098  -7.256  18.176  0.00  0.00    +0.000 C 
ATOM     30  H   UNL     1      -7.114  -7.528  17.779  0.00  0.00    +0.000 HD
ATOM     31  H   UNL     1      -8.445  -8.083  18.805  0.00  0.00    +0.000 HD
BRANCH  29  32
ATOM     32  C   UNL     1      -9.070  -7.043  17.006  0.00  0.00    +0.000 C 
ATOM     33  H   UNL     1      -9.218  -7.984  16.472  0.00  0.00    +0.000 HD
ATOM     34  H   UNL     1     -10.026  -6.686  17.409  0.00  0.00    +0.000 HD
BRANCH  32  38
ATOM     35  N   UNL     1      -9.178  -4.596  14.281  0.00  0.00    +0.000 N 
ATOM     36  C   UNL     1      -9.586  -5.465  15.221  0.00  0.00    +0.000 C 
ATOM     37  N   UNL     1     -10.897  -5.691  15.428  0.00  0.00    +0.000 N 
ATOM     38  N   UNL     1      -8.650  -6.112  15.966  0.00  0.00    +0.000 N 
ATOM     39  H   UNL     1      -8.217  -4.695  13.974  0.00  0.00    +0.000 HD
ATOM     40  H   UNL     1     -11.598  -5.319  14.805  0.00  0.00    +0.000 HD
ATOM     41  H   UNL     1     -11.241  -6.292  16.163  0.00  0.00    +0.000 HD
ATOM     42  H   UNL     1      -7.668  -5.922  15.807  0.00  0.00    +0.000 HD
BRANCH  35  43
ATOM     43  C   UNL     1      -9.930  -3.414  13.753  0.00  0.00    +0.000 C 
BRANCH  43  44
ATOM     44  C   UNL     1     -10.592  -2.616  14.891  0.00  0.00    +0.000 C 
ATOM     45  H   UNL     1     -11.661  -2.472  14.705  0.00  0.00    +0.000 HD
ATOM     46  H   UNL     1     -10.126  -1.628  14.987  0.00  0.00    +0.000 HD
ATOM     47  H   UNL     1     -10.507  -3.107  15.863  0.00  0.00    +0.000 HD
ENDBRANCH  43  44
BRANCH  43  48
ATOM     48  C   UNL     1     -10.973  -3.856  12.720  0.00  0.00    +0.000 C 
ATOM     49  H   UNL     1     -10.511  -4.443  11.919  0.00  0.00    +0.000 HD
ATOM     50  H   UNL     1     -11.478  -3.005  12.254  0.00  0.00    +0.000 HD
ATOM     51  H   UNL     1     -11.750  -4.470  13.187  0.00  0.00    +0.000 HD
ENDBRANCH  43  48
BRANCH  43  52
ATOM     52  C   UNL     1      -8.905  -2.493  13.073  0.00  0.00    +0.000 C 
ATOM     53  H   UNL     1      -8.725  -1.587  13.661  0.00  0.00    +0.000 HD
ATOM     54  H   UNL     1      -9.247  -2.195  12.075  0.00  0.00    +0.000 HD
ATOM     55  H   UNL     1      -7.949  -3.013  12.944  0.00  0.00    +0.000 HD
ENDBRANCH  43  52
ENDBRANCH  35  43
ENDBRANCH  32  38
ENDBRANCH  29  32
ENDBRANCH   1  29
TORSDOF 13
ENDMDL
