
 OpenBabel01112423113D

 54 57  0  0  1  0  0  0  0  0999 V2000
    2.1312   -0.9513    2.5689 C   0  0  0  0  0  0  0  0  0  0  0  0
    1.9808   -1.9384    1.4127 C   0  0  0  0  0  0  0  0  0  0  0  0
    2.7306   -1.4958    0.1463 C   0  0  2  0  0  0  0  0  0  0  0  0
    2.4676   -2.4260   -1.0395 C   0  0  0  0  0  0  0  0  0  0  0  0
    4.2182   -1.3884    0.3825 C   0  0  0  0  0  0  0  0  0  0  0  0
    4.8215   -0.1338    0.2864 C   0  0  0  0  0  0  0  0  0  0  0  0
    6.1867   -0.0070    0.4782 C   0  0  0  0  0  0  0  0  0  0  0  0
    6.9705   -1.1260    0.7487 C   0  0  0  0  0  0  0  0  0  0  0  0
    8.3593   -1.0581    0.8846 N   0  0  0  0  0  0  0  0  0  0  0  0
    9.1112    0.0601    0.6277 C   0  0  0  0  0  0  0  0  0  0  0  0
    8.7232    1.1586    0.2367 O   0  0  0  0  0  0  0  0  0  0  0  0
   10.5666   -0.2321    0.5843 C   0  0  0  0  0  0  0  0  0  0  0  0
   11.1884   -0.9263    1.6912 N   0  0  0  0  0  0  0  0  0  0  0  0
   11.6146   -0.2427    2.8136 C   0  0  0  0  0  0  0  0  0  0  0  0
   10.9282    0.3963    3.5943 O   0  0  0  0  0  0  0  0  0  0  0  0
   13.0019   -0.4394    2.9283 N   0  0  0  0  0  0  0  0  0  0  0  0
   13.5025   -0.8149    1.6430 C   0  0  1  0  0  0  0  0  0  0  0  0
   13.6377    0.4375    0.7095 C   0  0  0  0  0  0  0  0  0  0  0  0
   14.1164   -0.1661   -0.6007 C   0  0  0  0  0  0  0  0  0  0  0  0
   15.2129   -0.9688    0.0286 C   0  0  0  0  0  0  0  0  0  0  0  0
   16.4833   -1.1133   -0.4734 C   0  0  0  0  0  0  0  0  0  0  0  0
   17.4042   -1.7611    0.3334 C   0  0  0  0  0  0  0  0  0  0  0  0
   17.0220   -2.3025    1.5779 C   0  0  0  0  0  0  0  0  0  0  0  0
   15.7315   -2.1257    2.0909 C   0  0  0  0  0  0  0  0  0  0  0  0
   14.8417   -1.4077    1.3337 C   0  0  0  0  0  0  0  0  0  0  0  0
   12.2833   -1.6465    1.2850 C   0  0  0  0  0  0  0  0  0  0  0  0
   12.2285   -2.7084    0.6823 O   0  0  0  0  0  0  0  0  0  0  0  0
    6.3790   -2.3786    0.8767 C   0  0  0  0  0  0  0  0  0  0  0  0
    5.0056   -2.5066    0.6977 C   0  0  0  0  0  0  0  0  0  0  0  0
    1.4721   -1.2368    3.3944 H   0  0  0  0  0  0  0  0  0  0  0  0
    1.8667    0.0651    2.2593 H   0  0  0  0  0  0  0  0  0  0  0  0
    3.1555   -0.9357    2.9560 H   0  0  0  0  0  0  0  0  0  0  0  0
    0.9151   -2.0291    1.1755 H   0  0  0  0  0  0  0  0  0  0  0  0
    2.3187   -2.9274    1.7441 H   0  0  0  0  0  0  0  0  0  0  0  0
    2.3462   -0.5067   -0.1382 H   0  0  0  0  0  0  0  0  0  0  0  0
    2.8434   -3.4393   -0.8610 H   0  0  0  0  0  0  0  0  0  0  0  0
    2.9633   -2.0475   -1.9421 H   0  0  0  0  0  0  0  0  0  0  0  0
    1.3970   -2.4938   -1.2481 H   0  0  0  0  0  0  0  0  0  0  0  0
    4.2372    0.7577    0.0674 H   0  0  0  0  0  0  0  0  0  0  0  0
    6.5946    0.9925    0.3915 H   0  0  0  0  0  0  0  0  0  0  0  0
    8.8541   -1.9228    1.0790 H   0  0  0  0  0  0  0  0  0  0  0  0
   11.0220    0.7445    0.4398 H   0  0  0  0  0  0  0  0  0  0  0  0
   10.7450   -0.8066   -0.3373 H   0  0  0  0  0  0  0  0  0  0  0  0
   13.5336   -0.1357    3.7336 H   0  0  0  0  0  0  0  0  0  0  0  0
   14.4042    1.1217    1.1125 H   0  0  0  0  0  0  0  0  0  0  0  0
   12.7790    1.0814    0.5779 H   0  0  0  0  0  0  0  0  0  0  0  0
   14.4491    0.5778   -1.3252 H   0  0  0  0  0  0  0  0  0  0  0  0
   13.3650   -0.8200   -1.0641 H   0  0  0  0  0  0  0  0  0  0  0  0
   16.7674   -0.6599   -1.4167 H   0  0  0  0  0  0  0  0  0  0  0  0
   18.4427   -1.8262    0.0048 H   0  0  0  0  0  0  0  0  0  0  0  0
   17.7623   -2.8387    2.1599 H   0  0  0  0  0  0  0  0  0  0  0  0
   15.4586   -2.5428    3.0572 H   0  0  0  0  0  0  0  0  0  0  0  0
    6.9703   -3.2625    1.0983 H   0  0  0  0  0  0  0  0  0  0  0  0
    4.5554   -3.4896    0.7997 H   0  0  0  0  0  0  0  0  0  0  0  0
  1  2  1  0  0  0  0
  1 30  1  0  0  0  0
  1 31  1  0  0  0  0
  1 32  1  0  0  0  0
  2 33  1  0  0  0  0
  2 34  1  0  0  0  0
  3  5  1  0  0  0  0
  3  4  1  0  0  0  0
  3  2  1  0  0  0  0
  3 35  1  6  0  0  0
  4 36  1  0  0  0  0
  4 37  1  0  0  0  0
  4 38  1  0  0  0  0
  5  6  1  0  0  0  0
  5 29  2  0  0  0  0
  6  7  2  0  0  0  0
  6 39  1  0  0  0  0
  7  8  1  0  0  0  0
  7 40  1  0  0  0  0
  8  9  1  0  0  0  0
  8 28  2  0  0  0  0
  9 10  1  0  0  0  0
  9 41  1  0  0  0  0
 10 11  2  0  0  0  0
 10 12  1  0  0  0  0
 12 13  1  0  0  0  0
 12 42  1  0  0  0  0
 12 43  1  0  0  0  0
 13 14  1  0  0  0  0
 13 26  1  0  0  0  0
 14 16  1  0  0  0  0
 14 15  2  0  0  0  0
 16 17  1  0  0  0  0
 16 44  1  0  0  0  0
 17 18  1  0  0  0  0
 17 25  1  1  0  0  0
 17 26  1  0  0  0  0
 18 19  1  0  0  0  0
 18 45  1  0  0  0  0
 18 46  1  0  0  0  0
 19 20  1  0  0  0  0
 19 47  1  0  0  0  0
 19 48  1  0  0  0  0
 20 21  1  0  0  0  0
 20 25  2  0  0  0  0
 21 22  2  0  0  0  0
 21 49  1  0  0  0  0
 22 23  1  0  0  0  0
 22 50  1  0  0  0  0
 23 24  2  0  0  0  0
 23 51  1  0  0  0  0
 24 25  1  0  0  0  0
 24 52  1  0  0  0  0
 26 27  2  0  0  0  0
 28 29  1  0  0  0  0
 28 53  1  0  0  0  0
 29 54  1  0  0  0  0
M  END
$$$$
