MODEL 1
REMARK VINA RESULT:    -8.037      0.000      0.000
REMARK INTER + INTRA:         -12.600
REMARK INTER:                 -12.030
REMARK INTRA:                  -0.570
REMARK UNBOUND:                -0.570
REMARK  Name = 
REMARK  11 active torsions:
REMARK  status: ('A' for Active; 'I' for Inactive)
REMARK    1  A    between atoms: C_1  and  C_2
REMARK    2  A    between atoms: C_2  and  C_3
REMARK    3  A    between atoms: C_2  and  N_4
REMARK    4  A    between atoms: N_4  and  C_5
REMARK    5  A    between atoms: C_9  and  C_10
REMARK    6  A    between atoms: C_10  and  N_11
REMARK    7  A    between atoms: N_14  and  N_15
REMARK    8  A    between atoms: C_16  and  C_18
REMARK    9  A    between atoms: C_18  and  C_19
REMARK   10  A    between atoms: C_18  and  C_20
REMARK   11  A    between atoms: C_18  and  C_21
REMARK                            x       y       z     vdW  Elec       q    Type
REMARK                         _______ _______ _______ _____ _____    ______ ____
ROOT
ATOM      1  C   UNL     1      -8.123  -6.438  18.590  0.00  0.00    +0.000 C 
ATOM      2  H   UNL     1      -8.965  -5.895  18.148  0.00  0.00    +0.000 HD
ATOM      3  H   UNL     1      -7.259  -6.293  17.931  0.00  0.00    +0.000 HD
ENDROOT
BRANCH   1   8
ATOM      4  C   UNL     1      -9.163  -9.987  17.678  0.00  0.00    +0.000 A 
ATOM      5  C   UNL     1      -8.773 -10.689  18.822  0.00  0.00    +0.000 A 
ATOM      6  C   UNL     1      -8.270 -10.001  19.930  0.00  0.00    +0.000 A 
ATOM      7  C   UNL     1      -8.114  -8.614  19.879  0.00  0.00    +0.000 A 
ATOM      8  C   UNL     1      -8.447  -7.910  18.714  0.00  0.00    +0.000 A 
ATOM      9  C   UNL     1      -8.994  -8.604  17.618  0.00  0.00    +0.000 A 
ATOM     10  H   UNL     1      -8.816 -11.770  18.876  0.00  0.00    +0.000 HD
ATOM     11  H   UNL     1      -7.972 -10.544  20.827  0.00  0.00    +0.000 HD
ATOM     12  H   UNL     1      -7.705  -8.094  20.745  0.00  0.00    +0.000 HD
ATOM     13  H   UNL     1      -9.236  -8.038  16.725  0.00  0.00    +0.000 HD
BRANCH   4  14
ATOM     14  N   UNL     1      -9.582 -10.767  16.509  0.00  0.00    +0.000 NA
ATOM     15  H   UNL     1      -9.757 -11.719  16.859  0.00  0.00    +0.000 HD
ATOM     16  H   UNL     1     -10.492 -10.406  16.197  0.00  0.00    +0.000 HD
BRANCH  14  17
ATOM     17  C   UNL     1      -8.658 -10.835  15.326  0.00  0.00    +0.000 C 
ATOM     18  H   UNL     1      -7.695 -10.404  15.617  0.00  0.00    +0.000 HD
BRANCH  17  19
ATOM     19  C   UNL     1      -8.455 -12.316  15.008  0.00  0.00    +0.000 C 
ATOM     20  H   UNL     1      -9.247 -12.921  15.464  0.00  0.00    +0.000 HD
ATOM     21  H   UNL     1      -7.495 -12.681  15.388  0.00  0.00    +0.000 HD
ATOM     22  H   UNL     1      -8.483 -12.494  13.928  0.00  0.00    +0.000 HD
ENDBRANCH  17  19
BRANCH  17  23
ATOM     23  C   UNL     1      -9.240 -10.116  14.115  0.00  0.00    +0.000 C 
ATOM     24  H   UNL     1      -8.524  -9.420  13.666  0.00  0.00    +0.000 HD
ATOM     25  H   UNL     1     -10.129  -9.545  14.399  0.00  0.00    +0.000 HD
ATOM     26  H   UNL     1      -9.553 -10.830  13.343  0.00  0.00    +0.000 HD
ENDBRANCH  17  23
ENDBRANCH  14  17
ENDBRANCH   4  14
ENDBRANCH   1   8
BRANCH   1  27
ATOM     27  N   UNL     1      -7.861  -5.857  19.890  0.00  0.00    +0.000 N 
ATOM     28  C   UNL     1      -8.435  -4.676  20.286  0.00  0.00    +0.000 C 
ATOM     29  O   UNL     1      -9.175  -4.000  19.577  0.00  0.00    +0.000 OA
ATOM     30  N   UNL     1      -8.051  -4.304  21.557  0.00  0.00    +0.000 N 
ATOM     31  H   UNL     1      -7.010  -6.126  20.362  0.00  0.00    +0.000 HD
ATOM     32  H   UNL     1      -7.782  -5.007  22.241  0.00  0.00    +0.000 HD
BRANCH  30  33
ATOM     33  N   UNL     1      -8.615  -3.138  22.104  0.00  0.00    +0.000 N 
ATOM     34  C   UNL     1      -8.614  -2.990  23.482  0.00  0.00    +0.000 C 
ATOM     35  O   UNL     1      -8.201  -3.893  24.211  0.00  0.00    +0.000 OA
ATOM     36  H   UNL     1      -8.974  -2.448  21.452  0.00  0.00    +0.000 HD
BRANCH  34  37
ATOM     37  C   UNL     1      -9.134  -1.640  24.010  0.00  0.00    +0.000 C 
BRANCH  37  38
ATOM     38  C   UNL     1     -10.526  -1.340  23.437  0.00  0.00    +0.000 C 
ATOM     39  H   UNL     1     -10.482  -0.541  22.688  0.00  0.00    +0.000 HD
ATOM     40  H   UNL     1     -11.228  -1.019  24.215  0.00  0.00    +0.000 HD
ATOM     41  H   UNL     1     -10.955  -2.228  22.957  0.00  0.00    +0.000 HD
ENDBRANCH  37  38
BRANCH  37  42
ATOM     42  C   UNL     1      -9.228  -1.689  25.546  0.00  0.00    +0.000 C 
ATOM     43  H   UNL     1      -8.608  -2.493  25.956  0.00  0.00    +0.000 HD
ATOM     44  H   UNL     1     -10.260  -1.860  25.877  0.00  0.00    +0.000 HD
ATOM     45  H   UNL     1      -8.885  -0.750  25.996  0.00  0.00    +0.000 HD
ENDBRANCH  37  42
BRANCH  37  46
ATOM     46  C   UNL     1      -8.164  -0.516  23.618  0.00  0.00    +0.000 C 
ATOM     47  H   UNL     1      -8.154  -0.342  22.537  0.00  0.00    +0.000 HD
ATOM     48  H   UNL     1      -7.139  -0.757  23.920  0.00  0.00    +0.000 HD
ATOM     49  H   UNL     1      -8.441   0.430  24.100  0.00  0.00    +0.000 HD
ENDBRANCH  37  46
ENDBRANCH  34  37
ENDBRANCH  30  33
ENDBRANCH   1  27
TORSDOF 11
ENDMDL
MODEL 2
REMARK VINA RESULT:    -7.926      1.917      3.363
REMARK INTER + INTRA:         -12.434
REMARK INTER:                 -11.872
REMARK INTRA:                  -0.562
REMARK UNBOUND:                -0.570
REMARK  Name = 
REMARK  11 active torsions:
REMARK  status: ('A' for Active; 'I' for Inactive)
REMARK    1  A    between atoms: C_1  and  C_2
REMARK    2  A    between atoms: C_2  and  C_3
REMARK    3  A    between atoms: C_2  and  N_4
REMARK    4  A    between atoms: N_4  and  C_5
REMARK    5  A    between atoms: C_9  and  C_10
REMARK    6  A    between atoms: C_10  and  N_11
REMARK    7  A    between atoms: N_14  and  N_15
REMARK    8  A    between atoms: C_16  and  C_18
REMARK    9  A    between atoms: C_18  and  C_19
REMARK   10  A    between atoms: C_18  and  C_20
REMARK   11  A    between atoms: C_18  and  C_21
REMARK                            x       y       z     vdW  Elec       q    Type
REMARK                         _______ _______ _______ _____ _____    ______ ____
ROOT
ATOM      1  C   UNL     1      -9.463  -6.999  16.453  0.00  0.00    +0.000 C 
ATOM      2  H   UNL     1     -10.510  -6.861  16.744  0.00  0.00    +0.000 HD
ATOM      3  H   UNL     1      -9.272  -6.344  15.595  0.00  0.00    +0.000 HD
ENDROOT
BRANCH   1   8
ATOM      4  C   UNL     1      -9.275 -10.798  16.665  0.00  0.00    +0.000 A 
ATOM      5  C   UNL     1      -9.021 -11.134  15.332  0.00  0.00    +0.000 A 
ATOM      6  C   UNL     1      -8.806 -10.130  14.384  0.00  0.00    +0.000 A 
ATOM      7  C   UNL     1      -8.890  -8.787  14.758  0.00  0.00    +0.000 A 
ATOM      8  C   UNL     1      -9.203  -8.442  16.079  0.00  0.00    +0.000 A 
ATOM      9  C   UNL     1      -9.375  -9.458  17.038  0.00  0.00    +0.000 A 
ATOM     10  H   UNL     1      -9.014 -12.162  14.990  0.00  0.00    +0.000 HD
ATOM     11  H   UNL     1      -8.600 -10.388  13.345  0.00  0.00    +0.000 HD
ATOM     12  H   UNL     1      -8.735  -8.016  14.004  0.00  0.00    +0.000 HD
ATOM     13  H   UNL     1      -9.625  -9.165  18.052  0.00  0.00    +0.000 HD
BRANCH   4  14
ATOM     14  N   UNL     1      -9.599 -11.886  17.593  0.00  0.00    +0.000 NA
ATOM     15  H   UNL     1     -10.129 -11.447  18.360  0.00  0.00    +0.000 HD
ATOM     16  H   UNL     1     -10.254 -12.521  17.121  0.00  0.00    +0.000 HD
BRANCH  14  17
ATOM     17  C   UNL     1      -8.471 -12.695  18.170  0.00  0.00    +0.000 C 
ATOM     18  H   UNL     1      -7.750 -12.895  17.372  0.00  0.00    +0.000 HD
BRANCH  17  19
ATOM     19  C   UNL     1      -7.799 -11.824  19.231  0.00  0.00    +0.000 C 
ATOM     20  H   UNL     1      -8.523 -11.519  19.995  0.00  0.00    +0.000 HD
ATOM     21  H   UNL     1      -7.372 -10.916  18.794  0.00  0.00    +0.000 HD
ATOM     22  H   UNL     1      -6.995 -12.370  19.736  0.00  0.00    +0.000 HD
ENDBRANCH  17  19
BRANCH  17  23
ATOM     23  C   UNL     1      -8.972 -13.990  18.797  0.00  0.00    +0.000 C 
ATOM     24  H   UNL     1      -9.731 -14.481  18.179  0.00  0.00    +0.000 HD
ATOM     25  H   UNL     1      -9.416 -13.794  19.778  0.00  0.00    +0.000 HD
ATOM     26  H   UNL     1      -8.149 -14.698  18.955  0.00  0.00    +0.000 HD
ENDBRANCH  17  23
ENDBRANCH  14  17
ENDBRANCH   4  14
ENDBRANCH   1   8
BRANCH   1  27
ATOM     27  N   UNL     1      -8.640  -6.602  17.576  0.00  0.00    +0.000 N 
ATOM     28  C   UNL     1      -9.076  -5.697  18.511  0.00  0.00    +0.000 C 
ATOM     29  O   UNL     1     -10.161  -5.126  18.460  0.00  0.00    +0.000 OA
ATOM     30  N   UNL     1      -8.137  -5.462  19.493  0.00  0.00    +0.000 N 
ATOM     31  H   UNL     1      -7.641  -6.718  17.491  0.00  0.00    +0.000 HD
ATOM     32  H   UNL     1      -7.457  -6.178  19.739  0.00  0.00    +0.000 HD
BRANCH  30  33
ATOM     33  N   UNL     1      -8.483  -4.594  20.544  0.00  0.00    +0.000 N 
ATOM     34  C   UNL     1      -7.463  -3.954  21.231  0.00  0.00    +0.000 C 
ATOM     35  O   UNL     1      -6.283  -4.200  20.978  0.00  0.00    +0.000 OA
ATOM     36  H   UNL     1      -9.471  -4.464  20.730  0.00  0.00    +0.000 HD
BRANCH  34  37
ATOM     37  C   UNL     1      -7.912  -2.926  22.287  0.00  0.00    +0.000 C 
BRANCH  37  38
ATOM     38  C   UNL     1      -6.808  -1.886  22.525  0.00  0.00    +0.000 C 
ATOM     39  H   UNL     1      -6.308  -1.619  21.587  0.00  0.00    +0.000 HD
ATOM     40  H   UNL     1      -6.039  -2.255  23.211  0.00  0.00    +0.000 HD
ATOM     41  H   UNL     1      -7.220  -0.967  22.961  0.00  0.00    +0.000 HD
ENDBRANCH  37  38
BRANCH  37  42
ATOM     42  C   UNL     1      -9.180  -2.204  21.796  0.00  0.00    +0.000 C 
ATOM     43  H   UNL     1      -9.999  -2.308  22.515  0.00  0.00    +0.000 HD
ATOM     44  H   UNL     1      -9.522  -2.608  20.836  0.00  0.00    +0.000 HD
ATOM     45  H   UNL     1      -8.998  -1.131  21.660  0.00  0.00    +0.000 HD
ENDBRANCH  37  42
BRANCH  37  46
ATOM     46  C   UNL     1      -8.238  -3.640  23.606  0.00  0.00    +0.000 C 
ATOM     47  H   UNL     1      -9.286  -3.955  23.654  0.00  0.00    +0.000 HD
ATOM     48  H   UNL     1      -8.053  -2.986  24.466  0.00  0.00    +0.000 HD
ATOM     49  H   UNL     1      -7.621  -4.539  23.731  0.00  0.00    +0.000 HD
ENDBRANCH  37  46
ENDBRANCH  34  37
ENDBRANCH  30  33
ENDBRANCH   1  27
TORSDOF 11
ENDMDL
MODEL 3
REMARK VINA RESULT:    -7.814      2.135      3.594
REMARK INTER + INTRA:         -12.267
REMARK INTER:                 -11.670
REMARK INTRA:                  -0.597
REMARK UNBOUND:                -0.570
REMARK  Name = 
REMARK  11 active torsions:
REMARK  status: ('A' for Active; 'I' for Inactive)
REMARK    1  A    between atoms: C_1  and  C_2
REMARK    2  A    between atoms: C_2  and  C_3
REMARK    3  A    between atoms: C_2  and  N_4
REMARK    4  A    between atoms: N_4  and  C_5
REMARK    5  A    between atoms: C_9  and  C_10
REMARK    6  A    between atoms: C_10  and  N_11
REMARK    7  A    between atoms: N_14  and  N_15
REMARK    8  A    between atoms: C_16  and  C_18
REMARK    9  A    between atoms: C_18  and  C_19
REMARK   10  A    between atoms: C_18  and  C_20
REMARK   11  A    between atoms: C_18  and  C_21
REMARK                            x       y       z     vdW  Elec       q    Type
REMARK                         _______ _______ _______ _____ _____    ______ ____
ROOT
ATOM      1  C   UNL     1     -10.073  -8.141  18.011  0.00  0.00    +0.000 C 
ATOM      2  H   UNL     1     -10.049  -8.577  19.016  0.00  0.00    +0.000 HD
ATOM      3  H   UNL     1     -11.110  -7.848  17.807  0.00  0.00    +0.000 HD
ENDROOT
BRANCH   1   8
ATOM      4  C   UNL     1      -8.631 -11.316  16.476  0.00  0.00    +0.000 A 
ATOM      5  C   UNL     1      -8.989 -11.158  15.134  0.00  0.00    +0.000 A 
ATOM      6  C   UNL     1      -9.603  -9.977  14.706  0.00  0.00    +0.000 A 
ATOM      7  C   UNL     1      -9.902  -8.971  15.628  0.00  0.00    +0.000 A 
ATOM      8  C   UNL     1      -9.601  -9.148  16.984  0.00  0.00    +0.000 A 
ATOM      9  C   UNL     1      -8.943 -10.320  17.401  0.00  0.00    +0.000 A 
ATOM     10  H   UNL     1      -8.834 -11.941  14.402  0.00  0.00    +0.000 HD
ATOM     11  H   UNL     1      -9.877  -9.847  13.658  0.00  0.00    +0.000 HD
ATOM     12  H   UNL     1     -10.396  -8.064  15.281  0.00  0.00    +0.000 HD
ATOM     13  H   UNL     1      -8.727 -10.436  18.458  0.00  0.00    +0.000 HD
BRANCH   4  14
ATOM     14  N   UNL     1      -8.089 -12.614  16.889  0.00  0.00    +0.000 NA
ATOM     15  H   UNL     1      -7.535 -12.950  16.088  0.00  0.00    +0.000 HD
ATOM     16  H   UNL     1      -7.418 -12.449  17.650  0.00  0.00    +0.000 HD
BRANCH  14  17
ATOM     17  C   UNL     1      -9.049 -13.688  17.315  0.00  0.00    +0.000 C 
ATOM     18  H   UNL     1     -10.067 -13.305  17.197  0.00  0.00    +0.000 HD
BRANCH  17  19
ATOM     19  C   UNL     1      -8.854 -14.862  16.355  0.00  0.00    +0.000 C 
ATOM     20  H   UNL     1      -7.791 -15.110  16.259  0.00  0.00    +0.000 HD
ATOM     21  H   UNL     1      -9.235 -14.631  15.355  0.00  0.00    +0.000 HD
ATOM     22  H   UNL     1      -9.370 -15.757  16.718  0.00  0.00    +0.000 HD
ENDBRANCH  17  19
BRANCH  17  23
ATOM     23  C   UNL     1      -8.791 -14.137  18.747  0.00  0.00    +0.000 C 
ATOM     24  H   UNL     1      -8.591 -15.212  18.813  0.00  0.00    +0.000 HD
ATOM     25  H   UNL     1      -9.659 -13.920  19.380  0.00  0.00    +0.000 HD
ATOM     26  H   UNL     1      -7.938 -13.603  19.183  0.00  0.00    +0.000 HD
ENDBRANCH  17  23
ENDBRANCH  14  17
ENDBRANCH   4  14
ENDBRANCH   1   8
BRANCH   1  27
ATOM     27  N   UNL     1      -9.216  -6.974  18.019  0.00  0.00    +0.000 N 
ATOM     28  C   UNL     1      -8.638  -6.507  19.172  0.00  0.00    +0.000 C 
ATOM     29  O   UNL     1      -8.821  -7.001  20.281  0.00  0.00    +0.000 OA
ATOM     30  N   UNL     1      -7.863  -5.388  18.955  0.00  0.00    +0.000 N 
ATOM     31  H   UNL     1      -9.317  -6.311  17.264  0.00  0.00    +0.000 HD
ATOM     32  H   UNL     1      -7.422  -5.232  18.052  0.00  0.00    +0.000 HD
BRANCH  30  33
ATOM     33  N   UNL     1      -7.168  -4.842  20.050  0.00  0.00    +0.000 N 
ATOM     34  C   UNL     1      -7.728  -3.762  20.712  0.00  0.00    +0.000 C 
ATOM     35  O   UNL     1      -8.768  -3.243  20.305  0.00  0.00    +0.000 OA
ATOM     36  H   UNL     1      -6.296  -5.289  20.313  0.00  0.00    +0.000 HD
BRANCH  34  37
ATOM     37  C   UNL     1      -6.980  -3.290  21.974  0.00  0.00    +0.000 C 
BRANCH  37  38
ATOM     38  C   UNL     1      -5.485  -3.621  21.867  0.00  0.00    +0.000 C 
ATOM     39  H   UNL     1      -5.235  -3.997  20.868  0.00  0.00    +0.000 HD
ATOM     40  H   UNL     1      -5.183  -4.388  22.589  0.00  0.00    +0.000 HD
ATOM     41  H   UNL     1      -4.870  -2.734  22.057  0.00  0.00    +0.000 HD
ENDBRANCH  37  38
BRANCH  37  42
ATOM     42  C   UNL     1      -7.142  -1.767  22.129  0.00  0.00    +0.000 C 
ATOM     43  H   UNL     1      -7.402  -1.498  23.159  0.00  0.00    +0.000 HD
ATOM     44  H   UNL     1      -7.932  -1.381  21.472  0.00  0.00    +0.000 HD
ATOM     45  H   UNL     1      -6.214  -1.240  21.878  0.00  0.00    +0.000 HD
ENDBRANCH  37  42
BRANCH  37  46
ATOM     46  C   UNL     1      -7.570  -3.971  23.217  0.00  0.00    +0.000 C 
ATOM     47  H   UNL     1      -8.507  -3.501  23.537  0.00  0.00    +0.000 HD
ATOM     48  H   UNL     1      -6.874  -3.922  24.062  0.00  0.00    +0.000 HD
ATOM     49  H   UNL     1      -7.785  -5.029  23.022  0.00  0.00    +0.000 HD
ENDBRANCH  37  46
ENDBRANCH  34  37
ENDBRANCH  30  33
ENDBRANCH   1  27
TORSDOF 11
ENDMDL
MODEL 4
REMARK VINA RESULT:    -7.810      1.298      2.198
REMARK INTER + INTRA:         -12.260
REMARK INTER:                 -11.650
REMARK INTRA:                  -0.610
REMARK UNBOUND:                -0.570
REMARK  Name = 
REMARK  11 active torsions:
REMARK  status: ('A' for Active; 'I' for Inactive)
REMARK    1  A    between atoms: C_1  and  C_2
REMARK    2  A    between atoms: C_2  and  C_3
REMARK    3  A    between atoms: C_2  and  N_4
REMARK    4  A    between atoms: N_4  and  C_5
REMARK    5  A    between atoms: C_9  and  C_10
REMARK    6  A    between atoms: C_10  and  N_11
REMARK    7  A    between atoms: N_14  and  N_15
REMARK    8  A    between atoms: C_16  and  C_18
REMARK    9  A    between atoms: C_18  and  C_19
REMARK   10  A    between atoms: C_18  and  C_20
REMARK   11  A    between atoms: C_18  and  C_21
REMARK                            x       y       z     vdW  Elec       q    Type
REMARK                         _______ _______ _______ _____ _____    ______ ____
ROOT
ATOM      1  C   UNL     1      -7.161  -5.517  18.795  0.00  0.00    +0.000 C 
ATOM      2  H   UNL     1      -7.240  -4.522  18.343  0.00  0.00    +0.000 HD
ATOM      3  H   UNL     1      -6.170  -5.913  18.545  0.00  0.00    +0.000 HD
ENDROOT
BRANCH   1   8
ATOM      4  C   UNL     1      -9.233  -8.644  18.127  0.00  0.00    +0.000 A 
ATOM      5  C   UNL     1     -10.374  -8.094  17.534  0.00  0.00    +0.000 A 
ATOM      6  C   UNL     1     -10.429  -6.726  17.254  0.00  0.00    +0.000 A 
ATOM      7  C   UNL     1      -9.363  -5.896  17.608  0.00  0.00    +0.000 A 
ATOM      8  C   UNL     1      -8.241  -6.430  18.257  0.00  0.00    +0.000 A 
ATOM      9  C   UNL     1      -8.173  -7.815  18.496  0.00  0.00    +0.000 A 
ATOM     10  H   UNL     1     -11.247  -8.693  17.305  0.00  0.00    +0.000 HD
ATOM     11  H   UNL     1     -11.314  -6.295  16.784  0.00  0.00    +0.000 HD
ATOM     12  H   UNL     1      -9.428  -4.829  17.398  0.00  0.00    +0.000 HD
ATOM     13  H   UNL     1      -7.298  -8.203  19.007  0.00  0.00    +0.000 HD
BRANCH   4  14
ATOM     14  N   UNL     1      -9.272 -10.062  18.495  0.00  0.00    +0.000 NA
ATOM     15  H   UNL     1      -8.914 -10.107  19.460  0.00  0.00    +0.000 HD
ATOM     16  H   UNL     1     -10.257 -10.351  18.542  0.00  0.00    +0.000 HD
BRANCH  14  17
ATOM     17  C   UNL     1      -8.520 -11.044  17.641  0.00  0.00    +0.000 C 
ATOM     18  H   UNL     1      -7.488 -10.693  17.541  0.00  0.00    +0.000 HD
BRANCH  17  19
ATOM     19  C   UNL     1      -8.514 -12.373  18.397  0.00  0.00    +0.000 C 
ATOM     20  H   UNL     1      -8.379 -12.206  19.472  0.00  0.00    +0.000 HD
ATOM     21  H   UNL     1      -7.704 -13.026  18.057  0.00  0.00    +0.000 HD
ATOM     22  H   UNL     1      -9.461 -12.906  18.262  0.00  0.00    +0.000 HD
ENDBRANCH  17  19
BRANCH  17  23
ATOM     23  C   UNL     1      -9.176 -11.222  16.278  0.00  0.00    +0.000 C 
ATOM     24  H   UNL     1      -8.632 -11.934  15.649  0.00  0.00    +0.000 HD
ATOM     25  H   UNL     1      -9.217 -10.267  15.745  0.00  0.00    +0.000 HD
ATOM     26  H   UNL     1     -10.211 -11.575  16.379  0.00  0.00    +0.000 HD
ENDBRANCH  17  23
ENDBRANCH  14  17
ENDBRANCH   4  14
ENDBRANCH   1   8
BRANCH   1  27
ATOM     27  N   UNL     1      -7.289  -5.359  20.229  0.00  0.00    +0.000 N 
ATOM     28  C   UNL     1      -8.053  -4.363  20.783  0.00  0.00    +0.000 C 
ATOM     29  O   UNL     1      -8.652  -3.513  20.131  0.00  0.00    +0.000 OA
ATOM     30  N   UNL     1      -8.036  -4.393  22.161  0.00  0.00    +0.000 N 
ATOM     31  H   UNL     1      -6.562  -5.747  20.811  0.00  0.00    +0.000 HD
ATOM     32  H   UNL     1      -7.882  -5.268  22.657  0.00  0.00    +0.000 HD
BRANCH  30  33
ATOM     33  N   UNL     1      -8.826  -3.457  22.853  0.00  0.00    +0.000 N 
ATOM     34  C   UNL     1      -8.651  -3.332  24.222  0.00  0.00    +0.000 C 
ATOM     35  O   UNL     1      -7.879  -4.077  24.828  0.00  0.00    +0.000 OA
ATOM     36  H   UNL     1      -9.472  -2.901  22.303  0.00  0.00    +0.000 HD
BRANCH  34  37
ATOM     37  C   UNL     1      -9.457  -2.208  24.899  0.00  0.00    +0.000 C 
BRANCH  37  38
ATOM     38  C   UNL     1      -9.217  -0.871  24.185  0.00  0.00    +0.000 C 
ATOM     39  H   UNL     1      -8.146  -0.671  24.069  0.00  0.00    +0.000 HD
ATOM     40  H   UNL     1      -9.649  -0.029  24.736  0.00  0.00    +0.000 HD
ATOM     41  H   UNL     1      -9.669  -0.871  23.185  0.00  0.00    +0.000 HD
ENDBRANCH  37  38
BRANCH  37  42
ATOM     42  C   UNL     1     -10.959  -2.542  24.838  0.00  0.00    +0.000 C 
ATOM     43  H   UNL     1     -11.187  -3.190  23.985  0.00  0.00    +0.000 HD
ATOM     44  H   UNL     1     -11.566  -1.634  24.742  0.00  0.00    +0.000 HD
ATOM     45  H   UNL     1     -11.286  -3.066  25.744  0.00  0.00    +0.000 HD
ENDBRANCH  37  42
BRANCH  37  46
ATOM     46  C   UNL     1      -9.046  -2.084  26.373  0.00  0.00    +0.000 C 
ATOM     47  H   UNL     1      -8.321  -1.279  26.531  0.00  0.00    +0.000 HD
ATOM     48  H   UNL     1      -8.588  -3.012  26.734  0.00  0.00    +0.000 HD
ATOM     49  H   UNL     1      -9.914  -1.871  27.008  0.00  0.00    +0.000 HD
ENDBRANCH  37  46
ENDBRANCH  34  37
ENDBRANCH  30  33
ENDBRANCH   1  27
TORSDOF 11
ENDMDL
MODEL 5
REMARK VINA RESULT:    -7.756      1.777      2.356
REMARK INTER + INTRA:         -12.179
REMARK INTER:                 -12.196
REMARK INTRA:                   0.017
REMARK UNBOUND:                -0.570
REMARK  Name = 
REMARK  11 active torsions:
REMARK  status: ('A' for Active; 'I' for Inactive)
REMARK    1  A    between atoms: C_1  and  C_2
REMARK    2  A    between atoms: C_2  and  C_3
REMARK    3  A    between atoms: C_2  and  N_4
REMARK    4  A    between atoms: N_4  and  C_5
REMARK    5  A    between atoms: C_9  and  C_10
REMARK    6  A    between atoms: C_10  and  N_11
REMARK    7  A    between atoms: N_14  and  N_15
REMARK    8  A    between atoms: C_16  and  C_18
REMARK    9  A    between atoms: C_18  and  C_19
REMARK   10  A    between atoms: C_18  and  C_20
REMARK   11  A    between atoms: C_18  and  C_21
REMARK                            x       y       z     vdW  Elec       q    Type
REMARK                         _______ _______ _______ _____ _____    ______ ____
ROOT
ATOM      1  C   UNL     1      -9.417  -7.760  16.993  0.00  0.00    +0.000 C 
ATOM      2  H   UNL     1     -10.472  -7.483  17.088  0.00  0.00    +0.000 HD
ATOM      3  H   UNL     1      -9.196  -7.847  15.923  0.00  0.00    +0.000 HD
ENDROOT
BRANCH   1   8
ATOM      4  C   UNL     1      -9.013 -11.498  17.607  0.00  0.00    +0.000 A 
ATOM      5  C   UNL     1      -8.381 -11.504  18.854  0.00  0.00    +0.000 A 
ATOM      6  C   UNL     1      -8.180 -10.305  19.544  0.00  0.00    +0.000 A 
ATOM      7  C   UNL     1      -8.570  -9.094  18.969  0.00  0.00    +0.000 A 
ATOM      8  C   UNL     1      -9.150  -9.075  17.693  0.00  0.00    +0.000 A 
ATOM      9  C   UNL     1      -9.388 -10.289  17.023  0.00  0.00    +0.000 A 
ATOM     10  H   UNL     1      -8.005 -12.415  19.303  0.00  0.00    +0.000 HD
ATOM     11  H   UNL     1      -7.695 -10.306  20.521  0.00  0.00    +0.000 HD
ATOM     12  H   UNL     1      -8.392  -8.167  19.512  0.00  0.00    +0.000 HD
ATOM     13  H   UNL     1      -9.831 -10.247  16.033  0.00  0.00    +0.000 HD
BRANCH   4  14
ATOM     14  N   UNL     1      -9.101 -12.769  16.881  0.00  0.00    +0.000 NA
ATOM     15  H   UNL     1      -8.968 -13.503  17.591  0.00  0.00    +0.000 HD
ATOM     16  H   UNL     1     -10.064 -12.873  16.540  0.00  0.00    +0.000 HD
BRANCH  14  17
ATOM     17  C   UNL     1      -8.155 -13.007  15.737  0.00  0.00    +0.000 C 
ATOM     18  H   UNL     1      -7.160 -13.201  16.149  0.00  0.00    +0.000 HD
BRANCH  17  19
ATOM     19  C   UNL     1      -8.640 -14.265  15.017  0.00  0.00    +0.000 C 
ATOM     20  H   UNL     1      -9.702 -14.177  14.758  0.00  0.00    +0.000 HD
ATOM     21  H   UNL     1      -8.520 -15.157  15.639  0.00  0.00    +0.000 HD
ATOM     22  H   UNL     1      -8.085 -14.422  14.085  0.00  0.00    +0.000 HD
ENDBRANCH  17  19
BRANCH  17  23
ATOM     23  C   UNL     1      -8.132 -11.828  14.772  0.00  0.00    +0.000 C 
ATOM     24  H   UNL     1      -7.400 -11.967  13.970  0.00  0.00    +0.000 HD
ATOM     25  H   UNL     1      -7.876 -10.904  15.301  0.00  0.00    +0.000 HD
ATOM     26  H   UNL     1      -9.117 -11.671  14.314  0.00  0.00    +0.000 HD
ENDBRANCH  17  23
ENDBRANCH  14  17
ENDBRANCH   4  14
ENDBRANCH   1   8
BRANCH   1  27
ATOM     27  N   UNL     1      -8.630  -6.695  17.580  0.00  0.00    +0.000 N 
ATOM     28  C   UNL     1      -9.133  -5.878  18.560  0.00  0.00    +0.000 C 
ATOM     29  O   UNL     1     -10.280  -5.947  18.991  0.00  0.00    +0.000 OA
ATOM     30  N   UNL     1      -8.219  -4.933  18.977  0.00  0.00    +0.000 N 
ATOM     31  H   UNL     1      -7.854  -6.334  17.045  0.00  0.00    +0.000 HD
ATOM     32  H   UNL     1      -7.221  -5.118  18.915  0.00  0.00    +0.000 HD
BRANCH  30  33
ATOM     33  N   UNL     1      -8.593  -4.067  20.020  0.00  0.00    +0.000 N 
ATOM     34  C   UNL     1      -7.682  -3.831  21.038  0.00  0.00    +0.000 C 
ATOM     35  O   UNL     1      -6.604  -4.427  21.068  0.00  0.00    +0.000 OA
ATOM     36  H   UNL     1      -9.510  -3.638  19.959  0.00  0.00    +0.000 HD
BRANCH  34  37
ATOM     37  C   UNL     1      -8.104  -2.781  22.083  0.00  0.00    +0.000 C 
BRANCH  37  38
ATOM     38  C   UNL     1      -8.501  -3.464  23.399  0.00  0.00    +0.000 C 
ATOM     39  H   UNL     1      -8.433  -4.555  23.315  0.00  0.00    +0.000 HD
ATOM     40  H   UNL     1      -9.528  -3.223  23.692  0.00  0.00    +0.000 HD
ATOM     41  H   UNL     1      -7.845  -3.149  24.220  0.00  0.00    +0.000 HD
ENDBRANCH  37  38
BRANCH  37  42
ATOM     42  C   UNL     1      -6.930  -1.823  22.353  0.00  0.00    +0.000 C 
ATOM     43  H   UNL     1      -6.018  -2.160  21.847  0.00  0.00    +0.000 HD
ATOM     44  H   UNL     1      -6.712  -1.753  23.426  0.00  0.00    +0.000 HD
ATOM     45  H   UNL     1      -7.151  -0.812  21.992  0.00  0.00    +0.000 HD
ENDBRANCH  37  42
BRANCH  37  46
ATOM     46  C   UNL     1      -9.289  -1.961  21.552  0.00  0.00    +0.000 C 
ATOM     47  H   UNL     1      -9.281  -0.935  21.933  0.00  0.00    +0.000 HD
ATOM     48  H   UNL     1     -10.244  -2.412  21.844  0.00  0.00    +0.000 HD
ATOM     49  H   UNL     1      -9.269  -1.904  20.456  0.00  0.00    +0.000 HD
ENDBRANCH  37  46
ENDBRANCH  34  37
ENDBRANCH  30  33
ENDBRANCH   1  27
TORSDOF 11
ENDMDL
MODEL 6
REMARK VINA RESULT:    -7.730      1.929      2.448
REMARK INTER + INTRA:         -12.141
REMARK INTER:                 -11.641
REMARK INTRA:                  -0.500
REMARK UNBOUND:                -0.570
REMARK  Name = 
REMARK  11 active torsions:
REMARK  status: ('A' for Active; 'I' for Inactive)
REMARK    1  A    between atoms: C_1  and  C_2
REMARK    2  A    between atoms: C_2  and  C_3
REMARK    3  A    between atoms: C_2  and  N_4
REMARK    4  A    between atoms: N_4  and  C_5
REMARK    5  A    between atoms: C_9  and  C_10
REMARK    6  A    between atoms: C_10  and  N_11
REMARK    7  A    between atoms: N_14  and  N_15
REMARK    8  A    between atoms: C_16  and  C_18
REMARK    9  A    between atoms: C_18  and  C_19
REMARK   10  A    between atoms: C_18  and  C_20
REMARK   11  A    between atoms: C_18  and  C_21
REMARK                            x       y       z     vdW  Elec       q    Type
REMARK                         _______ _______ _______ _____ _____    ______ ____
ROOT
ATOM      1  C   UNL     1      -7.895  -6.614  17.338  0.00  0.00    +0.000 C 
ATOM      2  H   UNL     1      -7.283  -6.256  16.503  0.00  0.00    +0.000 HD
ATOM      3  H   UNL     1      -7.241  -7.202  17.994  0.00  0.00    +0.000 HD
ENDROOT
BRANCH   1   8
ATOM      4  C   UNL     1      -9.802  -9.505  15.751  0.00  0.00    +0.000 A 
ATOM      5  C   UNL     1     -11.112  -9.220  16.148  0.00  0.00    +0.000 A 
ATOM      6  C   UNL     1     -11.393  -8.037  16.839  0.00  0.00    +0.000 A 
ATOM      7  C   UNL     1     -10.359  -7.161  17.174  0.00  0.00    +0.000 A 
ATOM      8  C   UNL     1      -9.036  -7.469  16.832  0.00  0.00    +0.000 A 
ATOM      9  C   UNL     1      -8.765  -8.639  16.098  0.00  0.00    +0.000 A 
ATOM     10  H   UNL     1     -11.930  -9.905  15.965  0.00  0.00    +0.000 HD
ATOM     11  H   UNL     1     -12.415  -7.807  17.143  0.00  0.00    +0.000 HD
ATOM     12  H   UNL     1     -10.592  -6.251  17.727  0.00  0.00    +0.000 HD
ATOM     13  H   UNL     1      -7.731  -8.860  15.852  0.00  0.00    +0.000 HD
BRANCH   4  14
ATOM     14  N   UNL     1      -9.547 -10.806  15.125  0.00  0.00    +0.000 NA
ATOM     15  H   UNL     1     -10.460 -11.283  15.097  0.00  0.00    +0.000 HD
ATOM     16  H   UNL     1      -9.281 -10.640  14.147  0.00  0.00    +0.000 HD
BRANCH  14  17
ATOM     17  C   UNL     1      -8.531 -11.717  15.755  0.00  0.00    +0.000 C 
ATOM     18  H   UNL     1      -7.550 -11.237  15.684  0.00  0.00    +0.000 HD
BRANCH  17  19
ATOM     19  C   UNL     1      -8.907 -11.846  17.231  0.00  0.00    +0.000 C 
ATOM     20  H   UNL     1      -9.534 -11.003  17.545  0.00  0.00    +0.000 HD
ATOM     21  H   UNL     1      -8.021 -11.860  17.873  0.00  0.00    +0.000 HD
ATOM     22  H   UNL     1      -9.474 -12.765  17.413  0.00  0.00    +0.000 HD
ENDBRANCH  17  19
BRANCH  17  23
ATOM     23  C   UNL     1      -8.521 -13.090  15.096  0.00  0.00    +0.000 C 
ATOM     24  H   UNL     1      -8.395 -13.896  15.826  0.00  0.00    +0.000 HD
ATOM     25  H   UNL     1      -7.703 -13.163  14.373  0.00  0.00    +0.000 HD
ATOM     26  H   UNL     1      -9.452 -13.272  14.544  0.00  0.00    +0.000 HD
ENDBRANCH  17  23
ENDBRANCH  14  17
ENDBRANCH   4  14
ENDBRANCH   1   8
BRANCH   1  27
ATOM     27  N   UNL     1      -8.395  -5.453  18.044  0.00  0.00    +0.000 N 
ATOM     28  C   UNL     1      -8.134  -5.244  19.374  0.00  0.00    +0.000 C 
ATOM     29  O   UNL     1      -7.500  -6.023  20.080  0.00  0.00    +0.000 OA
ATOM     30  N   UNL     1      -8.705  -4.081  19.846  0.00  0.00    +0.000 N 
ATOM     31  H   UNL     1      -9.206  -4.986  17.664  0.00  0.00    +0.000 HD
ATOM     32  H   UNL     1      -8.874  -3.298  19.219  0.00  0.00    +0.000 HD
BRANCH  30  33
ATOM     33  N   UNL     1      -8.464  -3.722  21.184  0.00  0.00    +0.000 N 
ATOM     34  C   UNL     1      -8.859  -2.464  21.609  0.00  0.00    +0.000 C 
ATOM     35  O   UNL     1      -9.337  -1.653  20.814  0.00  0.00    +0.000 OA
ATOM     36  H   UNL     1      -8.031  -4.420  21.780  0.00  0.00    +0.000 HD
BRANCH  34  37
ATOM     37  C   UNL     1      -8.678  -2.178  23.112  0.00  0.00    +0.000 C 
BRANCH  37  38
ATOM     38  C   UNL     1     -10.030  -1.855  23.763  0.00  0.00    +0.000 C 
ATOM     39  H   UNL     1      -9.990  -1.998  24.849  0.00  0.00    +0.000 HD
ATOM     40  H   UNL     1     -10.832  -2.495  23.379  0.00  0.00    +0.000 HD
ATOM     41  H   UNL     1     -10.322  -0.815  23.570  0.00  0.00    +0.000 HD
ENDBRANCH  37  38
BRANCH  37  42
ATOM     42  C   UNL     1      -8.076  -3.415  23.802  0.00  0.00    +0.000 C 
ATOM     43  H   UNL     1      -8.789  -3.868  24.498  0.00  0.00    +0.000 HD
ATOM     44  H   UNL     1      -7.173  -3.155  24.369  0.00  0.00    +0.000 HD
ATOM     45  H   UNL     1      -7.799  -4.183  23.071  0.00  0.00    +0.000 HD
ENDBRANCH  37  42
BRANCH  37  46
ATOM     46  C   UNL     1      -7.718  -0.995  23.307  0.00  0.00    +0.000 C 
ATOM     47  H   UNL     1      -8.019  -0.121  22.721  0.00  0.00    +0.000 HD
ATOM     48  H   UNL     1      -6.699  -1.260  23.001  0.00  0.00    +0.000 HD
ATOM     49  H   UNL     1      -7.681  -0.688  24.359  0.00  0.00    +0.000 HD
ENDBRANCH  37  46
ENDBRANCH  34  37
ENDBRANCH  30  33
ENDBRANCH   1  27
TORSDOF 11
ENDMDL
MODEL 7
REMARK VINA RESULT:    -7.679      5.589      6.666
REMARK INTER + INTRA:         -12.065
REMARK INTER:                 -11.507
REMARK INTRA:                  -0.558
REMARK UNBOUND:                -0.570
REMARK  Name = 
REMARK  11 active torsions:
REMARK  status: ('A' for Active; 'I' for Inactive)
REMARK    1  A    between atoms: C_1  and  C_2
REMARK    2  A    between atoms: C_2  and  C_3
REMARK    3  A    between atoms: C_2  and  N_4
REMARK    4  A    between atoms: N_4  and  C_5
REMARK    5  A    between atoms: C_9  and  C_10
REMARK    6  A    between atoms: C_10  and  N_11
REMARK    7  A    between atoms: N_14  and  N_15
REMARK    8  A    between atoms: C_16  and  C_18
REMARK    9  A    between atoms: C_18  and  C_19
REMARK   10  A    between atoms: C_18  and  C_20
REMARK   11  A    between atoms: C_18  and  C_21
REMARK                            x       y       z     vdW  Elec       q    Type
REMARK                         _______ _______ _______ _____ _____    ______ ____
ROOT
ATOM      1  C   UNL     1     -10.757  -8.453  16.974  0.00  0.00    +0.000 C 
ATOM      2  H   UNL     1     -10.226  -7.925  17.773  0.00  0.00    +0.000 HD
ATOM      3  H   UNL     1     -11.617  -8.959  17.429  0.00  0.00    +0.000 HD
ENDROOT
BRANCH   1   8
ATOM      4  C   UNL     1      -8.545 -11.508  16.441  0.00  0.00    +0.000 A 
ATOM      5  C   UNL     1      -8.407 -11.507  15.050  0.00  0.00    +0.000 A 
ATOM      6  C   UNL     1      -8.941 -10.461  14.293  0.00  0.00    +0.000 A 
ATOM      7  C   UNL     1      -9.654  -9.436  14.921  0.00  0.00    +0.000 A 
ATOM      8  C   UNL     1      -9.847  -9.462  16.309  0.00  0.00    +0.000 A 
ATOM      9  C   UNL     1      -9.269 -10.495  17.070  0.00  0.00    +0.000 A 
ATOM     10  H   UNL     1      -7.920 -12.317  14.520  0.00  0.00    +0.000 HD
ATOM     11  H   UNL     1      -8.830 -10.452  13.208  0.00  0.00    +0.000 HD
ATOM     12  H   UNL     1     -10.078  -8.636  14.316  0.00  0.00    +0.000 HD
ATOM     13  H   UNL     1      -9.439 -10.496  18.141  0.00  0.00    +0.000 HD
BRANCH   4  14
ATOM     14  N   UNL     1      -8.060 -12.682  17.174  0.00  0.00    +0.000 NA
ATOM     15  H   UNL     1      -7.296 -13.069  16.602  0.00  0.00    +0.000 HD
ATOM     16  H   UNL     1      -7.625 -12.353  18.045  0.00  0.00    +0.000 HD
BRANCH  14  17
ATOM     17  C   UNL     1      -9.038 -13.774  17.503  0.00  0.00    +0.000 C 
ATOM     18  H   UNL     1     -10.049 -13.363  17.430  0.00  0.00    +0.000 HD
BRANCH  17  19
ATOM     19  C   UNL     1      -8.870 -14.854  16.435  0.00  0.00    +0.000 C 
ATOM     20  H   UNL     1      -9.559 -14.683  15.600  0.00  0.00    +0.000 HD
ATOM     21  H   UNL     1      -9.072 -15.853  16.836  0.00  0.00    +0.000 HD
ATOM     22  H   UNL     1      -7.852 -14.851  16.029  0.00  0.00    +0.000 HD
ENDBRANCH  17  19
BRANCH  17  23
ATOM     23  C   UNL     1      -8.781 -14.362  18.885  0.00  0.00    +0.000 C 
ATOM     24  H   UNL     1      -8.442 -13.604  19.598  0.00  0.00    +0.000 HD
ATOM     25  H   UNL     1      -8.012 -15.140  18.834  0.00  0.00    +0.000 HD
ATOM     26  H   UNL     1      -9.685 -14.833  19.290  0.00  0.00    +0.000 HD
ENDBRANCH  17  23
ENDBRANCH  14  17
ENDBRANCH   4  14
ENDBRANCH   1   8
BRANCH   1  27
ATOM     27  N   UNL     1     -11.210  -7.461  16.020  0.00  0.00    +0.000 N 
ATOM     28  C   UNL     1     -11.206  -6.121  16.310  0.00  0.00    +0.000 C 
ATOM     29  O   UNL     1     -10.862  -5.653  17.392  0.00  0.00    +0.000 OA
ATOM     30  N   UNL     1     -11.676  -5.355  15.265  0.00  0.00    +0.000 N 
ATOM     31  H   UNL     1     -11.840  -7.763  15.291  0.00  0.00    +0.000 HD
ATOM     32  H   UNL     1     -11.586  -5.680  14.306  0.00  0.00    +0.000 HD
BRANCH  30  33
ATOM     33  N   UNL     1     -11.670  -3.956  15.415  0.00  0.00    +0.000 N 
ATOM     34  C   UNL     1     -11.890  -3.174  14.293  0.00  0.00    +0.000 C 
ATOM     35  O   UNL     1     -12.010  -3.688  13.180  0.00  0.00    +0.000 OA
ATOM     36  H   UNL     1     -11.527  -3.592  16.351  0.00  0.00    +0.000 HD
BRANCH  34  37
ATOM     37  C   UNL     1     -11.992  -1.657  14.545  0.00  0.00    +0.000 C 
BRANCH  37  38
ATOM     38  C   UNL     1     -12.706  -0.966  13.375  0.00  0.00    +0.000 C 
ATOM     39  H   UNL     1     -13.638  -1.483  13.119  0.00  0.00    +0.000 HD
ATOM     40  H   UNL     1     -12.086  -0.945  12.472  0.00  0.00    +0.000 HD
ATOM     41  H   UNL     1     -12.955   0.073  13.623  0.00  0.00    +0.000 HD
ENDBRANCH  37  38
BRANCH  37  42
ATOM     42  C   UNL     1     -12.792  -1.403  15.836  0.00  0.00    +0.000 C 
ATOM     43  H   UNL     1     -13.868  -1.505  15.663  0.00  0.00    +0.000 HD
ATOM     44  H   UNL     1     -12.608  -0.393  16.226  0.00  0.00    +0.000 HD
ATOM     45  H   UNL     1     -12.517  -2.117  16.620  0.00  0.00    +0.000 HD
ENDBRANCH  37  42
BRANCH  37  46
ATOM     46  C   UNL     1     -10.588  -1.060  14.716  0.00  0.00    +0.000 C 
ATOM     47  H   UNL     1      -9.910  -1.748  15.231  0.00  0.00    +0.000 HD
ATOM     48  H   UNL     1     -10.622  -0.134  15.301  0.00  0.00    +0.000 HD
ATOM     49  H   UNL     1     -10.139  -0.824  13.744  0.00  0.00    +0.000 HD
ENDBRANCH  37  46
ENDBRANCH  34  37
ENDBRANCH  30  33
ENDBRANCH   1  27
TORSDOF 11
ENDMDL
MODEL 8
REMARK VINA RESULT:    -7.669      2.301      9.975
REMARK INTER + INTRA:         -12.050
REMARK INTER:                 -11.554
REMARK INTRA:                  -0.497
REMARK UNBOUND:                -0.570
REMARK  Name = 
REMARK  11 active torsions:
REMARK  status: ('A' for Active; 'I' for Inactive)
REMARK    1  A    between atoms: C_1  and  C_2
REMARK    2  A    between atoms: C_2  and  C_3
REMARK    3  A    between atoms: C_2  and  N_4
REMARK    4  A    between atoms: N_4  and  C_5
REMARK    5  A    between atoms: C_9  and  C_10
REMARK    6  A    between atoms: C_10  and  N_11
REMARK    7  A    between atoms: N_14  and  N_15
REMARK    8  A    between atoms: C_16  and  C_18
REMARK    9  A    between atoms: C_18  and  C_19
REMARK   10  A    between atoms: C_18  and  C_20
REMARK   11  A    between atoms: C_18  and  C_21
REMARK                            x       y       z     vdW  Elec       q    Type
REMARK                         _______ _______ _______ _____ _____    ______ ____
ROOT
ATOM      1  C   UNL     1      -7.135  -3.464  21.867  0.00  0.00    +0.000 C 
ATOM      2  H   UNL     1      -6.306  -4.090  22.214  0.00  0.00    +0.000 HD
ATOM      3  H   UNL     1      -6.738  -2.792  21.097  0.00  0.00    +0.000 HD
ENDROOT
BRANCH   1   8
ATOM      4  C   UNL     1      -8.340  -0.515  23.956  0.00  0.00    +0.000 A 
ATOM      5  C   UNL     1      -9.041  -1.169  24.974  0.00  0.00    +0.000 A 
ATOM      6  C   UNL     1      -9.035  -2.566  25.044  0.00  0.00    +0.000 A 
ATOM      7  C   UNL     1      -8.367  -3.312  24.071  0.00  0.00    +0.000 A 
ATOM      8  C   UNL     1      -7.713  -2.664  23.014  0.00  0.00    +0.000 A 
ATOM      9  C   UNL     1      -7.686  -1.258  22.974  0.00  0.00    +0.000 A 
ATOM     10  H   UNL     1      -9.625  -0.629  25.708  0.00  0.00    +0.000 HD
ATOM     11  H   UNL     1      -9.573  -3.080  25.841  0.00  0.00    +0.000 HD
ATOM     12  H   UNL     1      -8.385  -4.399  24.130  0.00  0.00    +0.000 HD
ATOM     13  H   UNL     1      -7.179  -0.781  22.141  0.00  0.00    +0.000 HD
BRANCH   4  14
ATOM     14  N   UNL     1      -8.468   0.943  23.868  0.00  0.00    +0.000 NA
ATOM     15  H   UNL     1      -7.803   1.235  23.138  0.00  0.00    +0.000 HD
ATOM     16  H   UNL     1      -9.404   1.156  23.503  0.00  0.00    +0.000 HD
BRANCH  14  17
ATOM     17  C   UNL     1      -8.234   1.759  25.108  0.00  0.00    +0.000 C 
ATOM     18  H   UNL     1      -7.789   1.109  25.867  0.00  0.00    +0.000 HD
BRANCH  17  19
ATOM     19  C   UNL     1      -7.223   2.844  24.739  0.00  0.00    +0.000 C 
ATOM     20  H   UNL     1      -6.674   3.178  25.627  0.00  0.00    +0.000 HD
ATOM     21  H   UNL     1      -7.714   3.719  24.300  0.00  0.00    +0.000 HD
ATOM     22  H   UNL     1      -6.489   2.468  24.018  0.00  0.00    +0.000 HD
ENDBRANCH  17  19
BRANCH  17  23
ATOM     23  C   UNL     1      -9.522   2.395  25.614  0.00  0.00    +0.000 C 
ATOM     24  H   UNL     1     -10.023   1.772  26.362  0.00  0.00    +0.000 HD
ATOM     25  H   UNL     1     -10.223   2.553  24.787  0.00  0.00    +0.000 HD
ATOM     26  H   UNL     1      -9.330   3.379  26.061  0.00  0.00    +0.000 HD
ENDBRANCH  17  23
ENDBRANCH  14  17
ENDBRANCH   4  14
ENDBRANCH   1   8
BRANCH   1  27
ATOM     27  N   UNL     1      -8.136  -4.341  21.296  0.00  0.00    +0.000 N 
ATOM     28  C   UNL     1      -7.841  -5.212  20.278  0.00  0.00    +0.000 C 
ATOM     29  O   UNL     1      -6.738  -5.298  19.745  0.00  0.00    +0.000 OA
ATOM     30  N   UNL     1      -8.936  -5.951  19.884  0.00  0.00    +0.000 N 
ATOM     31  H   UNL     1      -9.105  -4.078  21.398  0.00  0.00    +0.000 HD
ATOM     32  H   UNL     1      -9.685  -6.154  20.541  0.00  0.00    +0.000 HD
BRANCH  30  33
ATOM     33  N   UNL     1      -8.753  -6.923  18.884  0.00  0.00    +0.000 N 
ATOM     34  C   UNL     1      -9.877  -7.497  18.310  0.00  0.00    +0.000 C 
ATOM     35  O   UNL     1     -11.004  -7.219  18.721  0.00  0.00    +0.000 OA
ATOM     36  H   UNL     1      -7.798  -7.138  18.616  0.00  0.00    +0.000 HD
BRANCH  34  37
ATOM     37  C   UNL     1      -9.611  -8.462  17.139  0.00  0.00    +0.000 C 
BRANCH  37  38
ATOM     38  C   UNL     1      -8.606  -7.848  16.156  0.00  0.00    +0.000 C 
ATOM     39  H   UNL     1      -8.418  -8.520  15.311  0.00  0.00    +0.000 HD
ATOM     40  H   UNL     1      -7.640  -7.644  16.631  0.00  0.00    +0.000 HD
ATOM     41  H   UNL     1      -8.978  -6.898  15.753  0.00  0.00    +0.000 HD
ENDBRANCH  37  38
BRANCH  37  42
ATOM     42  C   UNL     1      -9.034  -9.782  17.681  0.00  0.00    +0.000 C 
ATOM     43  H   UNL     1      -9.296  -9.927  18.735  0.00  0.00    +0.000 HD
ATOM     44  H   UNL     1      -7.940  -9.801  17.602  0.00  0.00    +0.000 HD
ATOM     45  H   UNL     1      -9.423 -10.644  17.126  0.00  0.00    +0.000 HD
ENDBRANCH  37  42
BRANCH  37  46
ATOM     46  C   UNL     1     -10.925  -8.770  16.407  0.00  0.00    +0.000 C 
ATOM     47  H   UNL     1     -11.664  -7.972  16.538  0.00  0.00    +0.000 HD
ATOM     48  H   UNL     1     -11.375  -9.698  16.777  0.00  0.00    +0.000 HD
ATOM     49  H   UNL     1     -10.758  -8.886  15.329  0.00  0.00    +0.000 HD
ENDBRANCH  37  46
ENDBRANCH  34  37
ENDBRANCH  30  33
ENDBRANCH   1  27
TORSDOF 11
ENDMDL
MODEL 9
REMARK VINA RESULT:    -7.609      4.739      6.611
REMARK INTER + INTRA:         -11.960
REMARK INTER:                 -11.399
REMARK INTRA:                  -0.561
REMARK UNBOUND:                -0.570
REMARK  Name = 
REMARK  11 active torsions:
REMARK  status: ('A' for Active; 'I' for Inactive)
REMARK    1  A    between atoms: C_1  and  C_2
REMARK    2  A    between atoms: C_2  and  C_3
REMARK    3  A    between atoms: C_2  and  N_4
REMARK    4  A    between atoms: N_4  and  C_5
REMARK    5  A    between atoms: C_9  and  C_10
REMARK    6  A    between atoms: C_10  and  N_11
REMARK    7  A    between atoms: N_14  and  N_15
REMARK    8  A    between atoms: C_16  and  C_18
REMARK    9  A    between atoms: C_18  and  C_19
REMARK   10  A    between atoms: C_18  and  C_20
REMARK   11  A    between atoms: C_18  and  C_21
REMARK                            x       y       z     vdW  Elec       q    Type
REMARK                         _______ _______ _______ _____ _____    ______ ____
ROOT
ATOM      1  C   UNL     1      -9.768  -7.046  18.368  0.00  0.00    +0.000 C 
ATOM      2  H   UNL     1      -8.891  -6.392  18.328  0.00  0.00    +0.000 HD
ATOM      3  H   UNL     1     -10.406  -6.691  19.186  0.00  0.00    +0.000 HD
ENDROOT
BRANCH   1   8
ATOM      4  C   UNL     1      -9.172 -10.769  17.823  0.00  0.00    +0.000 A 
ATOM      5  C   UNL     1      -8.329 -11.072  18.896  0.00  0.00    +0.000 A 
ATOM      6  C   UNL     1      -8.039 -10.098  19.856  0.00  0.00    +0.000 A 
ATOM      7  C   UNL     1      -8.553  -8.806  19.719  0.00  0.00    +0.000 A 
ATOM      8  C   UNL     1      -9.349  -8.480  18.613  0.00  0.00    +0.000 A 
ATOM      9  C   UNL     1      -9.674  -9.476  17.674  0.00  0.00    +0.000 A 
ATOM     10  H   UNL     1      -7.858 -12.041  19.002  0.00  0.00    +0.000 HD
ATOM     11  H   UNL     1      -7.389 -10.332  20.700  0.00  0.00    +0.000 HD
ATOM     12  H   UNL     1      -8.305  -8.054  20.467  0.00  0.00    +0.000 HD
ATOM     13  H   UNL     1     -10.285  -9.196  16.823  0.00  0.00    +0.000 HD
BRANCH   4  14
ATOM     14  N   UNL     1      -9.356 -11.794  16.790  0.00  0.00    +0.000 NA
ATOM     15  H   UNL     1      -9.396 -12.691  17.295  0.00  0.00    +0.000 HD
ATOM     16  H   UNL     1     -10.285 -11.659  16.373  0.00  0.00    +0.000 HD
BRANCH  14  17
ATOM     17  C   UNL     1      -8.339 -11.890  15.687  0.00  0.00    +0.000 C 
ATOM     18  H   UNL     1      -7.342 -11.820  16.133  0.00  0.00    +0.000 HD
BRANCH  17  19
ATOM     19  C   UNL     1      -8.498 -13.275  15.059  0.00  0.00    +0.000 C 
ATOM     20  H   UNL     1      -8.042 -14.042  15.695  0.00  0.00    +0.000 HD
ATOM     21  H   UNL     1      -8.019 -13.328  14.076  0.00  0.00    +0.000 HD
ATOM     22  H   UNL     1      -9.556 -13.532  14.937  0.00  0.00    +0.000 HD
ENDBRANCH  17  19
BRANCH  17  23
ATOM     23  C   UNL     1      -8.549 -10.811  14.634  0.00  0.00    +0.000 C 
ATOM     24  H   UNL     1      -8.586 -11.226  13.621  0.00  0.00    +0.000 HD
ATOM     25  H   UNL     1      -7.735 -10.080  14.665  0.00  0.00    +0.000 HD
ATOM     26  H   UNL     1      -9.481 -10.258  14.811  0.00  0.00    +0.000 HD
ENDBRANCH  17  23
ENDBRANCH  14  17
ENDBRANCH   4  14
ENDBRANCH   1   8
BRANCH   1  27
ATOM     27  N   UNL     1     -10.463  -6.923  17.103  0.00  0.00    +0.000 N 
ATOM     28  C   UNL     1     -10.836  -5.704  16.597  0.00  0.00    +0.000 C 
ATOM     29  O   UNL     1     -10.653  -4.635  17.173  0.00  0.00    +0.000 OA
ATOM     30  N   UNL     1     -11.484  -5.814  15.385  0.00  0.00    +0.000 N 
ATOM     31  H   UNL     1     -10.973  -7.727  16.767  0.00  0.00    +0.000 HD
ATOM     32  H   UNL     1     -11.292  -6.598  14.766  0.00  0.00    +0.000 HD
BRANCH  30  33
ATOM     33  N   UNL     1     -11.869  -4.630  14.731  0.00  0.00    +0.000 N 
ATOM     34  C   UNL     1     -11.042  -4.128  13.739  0.00  0.00    +0.000 C 
ATOM     35  O   UNL     1      -9.961  -4.662  13.491  0.00  0.00    +0.000 OA
ATOM     36  H   UNL     1     -12.753  -4.215  15.007  0.00  0.00    +0.000 HD
BRANCH  34  37
ATOM     37  C   UNL     1     -11.579  -2.899  12.979  0.00  0.00    +0.000 C 
BRANCH  37  38
ATOM     38  C   UNL     1     -12.185  -1.885  13.959  0.00  0.00    +0.000 C 
ATOM     39  H   UNL     1     -12.736  -2.391  14.760  0.00  0.00    +0.000 HD
ATOM     40  H   UNL     1     -12.884  -1.203  13.462  0.00  0.00    +0.000 HD
ATOM     41  H   UNL     1     -11.404  -1.271  14.424  0.00  0.00    +0.000 HD
ENDBRANCH  37  38
BRANCH  37  42
ATOM     42  C   UNL     1     -10.427  -2.224  12.213  0.00  0.00    +0.000 C 
ATOM     43  H   UNL     1      -9.492  -2.269  12.782  0.00  0.00    +0.000 HD
ATOM     44  H   UNL     1     -10.647  -1.168  12.013  0.00  0.00    +0.000 HD
ATOM     45  H   UNL     1     -10.248  -2.715  11.250  0.00  0.00    +0.000 HD
ENDBRANCH  37  42
BRANCH  37  46
ATOM     46  C   UNL     1     -12.646  -3.337  11.966  0.00  0.00    +0.000 C 
ATOM     47  H   UNL     1     -12.240  -3.420  10.952  0.00  0.00    +0.000 HD
ATOM     48  H   UNL     1     -13.473  -2.619  11.929  0.00  0.00    +0.000 HD
ATOM     49  H   UNL     1     -13.065  -4.315  12.232  0.00  0.00    +0.000 HD
ENDBRANCH  37  46
ENDBRANCH  34  37
ENDBRANCH  30  33
ENDBRANCH   1  27
TORSDOF 11
ENDMDL
