REMARK  Name = 
REMARK  10 active torsions:
REMARK  status: ('A' for Active; 'I' for Inactive)
REMARK    1  A    between atoms: C_1  and  O_2
REMARK    2  A    between atoms: O_2  and  C_3
REMARK    3  A    between atoms: C_3  and  C_4
REMARK    4  A    between atoms: C_4  and  N_5
REMARK    5  A    between atoms: C_11  and  C_12
REMARK    6  A    between atoms: C_13  and  C_14
REMARK    7  A    between atoms: C_16  and  C_17
REMARK    8  A    between atoms: C_19  and  O_20
REMARK    9  A    between atoms: C_22  and  C_23
REMARK   10  A    between atoms: C_26  and  C_27
REMARK                            x       y       z     vdW  Elec       q    Type
REMARK                         _______ _______ _______ _____ _____    ______ ____
ROOT
ATOM      1  N   UNL     1       1.011  -2.812  -0.532  0.00  0.00    +0.000 N 
ATOM      2  C   UNL     1       1.576  -3.315   0.643  0.00  0.00    +0.000 C 
ATOM      3  O   UNL     1       1.834  -4.470   0.932  0.00  0.00    +0.000 OA
ATOM      4  C   UNL     1       1.752  -2.163   1.444  0.00  0.00    +0.000 A 
ATOM      5  N   UNL     1       2.222  -1.836   2.652  0.00  0.00    +0.000 N 
ATOM      6  N   UNL     1       2.142  -0.504   2.873  0.00  0.00    +0.000 NA
ATOM      7  C   UNL     1       1.518   0.018   1.786  0.00  0.00    +0.000 A 
ATOM      8  C   UNL     1       1.284  -1.024   0.858  0.00  0.00    +0.000 A 
ATOM      9  C   UNL     1       0.734  -1.346  -0.482  0.00  0.00    +0.000 C 
ATOM     10  H   UNL     1       2.607  -2.436   3.374  0.00  0.00    +0.000 HD
ATOM     11  H   UNL     1       1.292  -0.875  -1.294  0.00  0.00    +0.000 HD
ENDROOT
BRANCH   9  12
ATOM     12  C   UNL     1      -0.740  -1.008  -0.477  0.00  0.00    +0.000 A 
ATOM     13  C   UNL     1      -1.238  -0.088  -1.415  0.00  0.00    +0.000 A 
ATOM     14  C   UNL     1      -2.596   0.236  -1.454  0.00  0.00    +0.000 A 
ATOM     15  C   UNL     1      -3.488  -0.350  -0.552  0.00  0.00    +0.000 A 
ATOM     16  C   UNL     1      -3.005  -1.269   0.384  0.00  0.00    +0.000 A 
ATOM     17  C   UNL     1      -1.649  -1.600   0.416  0.00  0.00    +0.000 A 
ATOM     18  H   UNL     1      -0.563   0.384  -2.126  0.00  0.00    +0.000 HD
ATOM     19  H   UNL     1      -2.949   0.954  -2.190  0.00  0.00    +0.000 HD
ATOM     20  H   UNL     1      -3.680  -1.732   1.099  0.00  0.00    +0.000 HD
ATOM     21  H   UNL     1      -1.306  -2.319   1.157  0.00  0.00    +0.000 HD
BRANCH  15  22
ATOM     22  C   UNL     1      -4.946   0.002  -0.565  0.00  0.00    +0.000 C 
ATOM     23  H   UNL     1      -5.186   0.686  -1.381  0.00  0.00    +0.000 HD
ATOM     24  H   UNL     1      -5.225   0.482   0.378  0.00  0.00    +0.000 HD
ATOM     25  H   UNL     1      -5.550  -0.903  -0.698  0.00  0.00    +0.000 HD
ENDBRANCH  15  22
ENDBRANCH   9  12
BRANCH   7  26
ATOM     26  C   UNL     1       1.175   1.453   1.687  0.00  0.00    +0.000 A 
ATOM     27  C   UNL     1       0.772   2.230   2.804  0.00  0.00    +0.000 A 
ATOM     28  C   UNL     1       0.379   3.578   2.614  0.00  0.00    +0.000 A 
ATOM     29  C   UNL     1       0.391   4.184   1.358  0.00  0.00    +0.000 A 
ATOM     30  C   UNL     1       0.837   3.442   0.269  0.00  0.00    +0.000 A 
ATOM     31  C   UNL     1       1.232   2.107   0.435  0.00  0.00    +0.000 A 
ATOM     32  H   UNL     1       0.055   4.157   3.479  0.00  0.00    +0.000 HD
ATOM     33  H   UNL     1       0.872   3.911  -0.710  0.00  0.00    +0.000 HD
BRANCH  27  34
ATOM     34  C   UNL     1       0.700   1.763   4.237  0.00  0.00    +0.000 C 
ATOM     35  H   UNL     1       1.072   0.761   4.431  0.00  0.00    +0.000 HD
ATOM     36  H   UNL     1      -0.338   1.791   4.584  0.00  0.00    +0.000 HD
ATOM     37  H   UNL     1       1.295   2.438   4.865  0.00  0.00    +0.000 HD
ENDBRANCH  27  34
BRANCH  29  38
ATOM     38  C   UNL     1      -0.032   5.612   1.186  0.00  0.00    +0.000 C 
ATOM     39  H   UNL     1      -0.457   6.019   2.109  0.00  0.00    +0.000 HD
ATOM     40  H   UNL     1      -0.798   5.689   0.408  0.00  0.00    +0.000 HD
ATOM     41  H   UNL     1       0.829   6.228   0.908  0.00  0.00    +0.000 HD
ENDBRANCH  29  38
BRANCH  31  42
ATOM     42  O   UNL     1       1.713   1.458  -0.676  0.00  0.00    +0.000 OA
ATOM     43  H   UNL     1       1.920   2.121  -1.355  0.00  0.00    +0.000 HD
ENDBRANCH  31  42
ENDBRANCH   7  26
BRANCH   1  44
ATOM     44  C   UNL     1       0.595  -3.676  -1.630  0.00  0.00    +0.000 C 
ATOM     45  H   UNL     1       1.234  -4.567  -1.612  0.00  0.00    +0.000 HD
ATOM     46  H   UNL     1      -0.427  -4.003  -1.411  0.00  0.00    +0.000 HD
BRANCH  44  47
ATOM     47  C   UNL     1       0.638  -3.044  -3.025  0.00  0.00    +0.000 C 
ATOM     48  H   UNL     1       0.296  -3.781  -3.761  0.00  0.00    +0.000 HD
ATOM     49  H   UNL     1      -0.023  -2.175  -3.081  0.00  0.00    +0.000 HD
BRANCH  47  50
ATOM     50  O   UNL     1       1.971  -2.645  -3.352  0.00  0.00    +0.000 OA
BRANCH  50  51
ATOM     51  C   UNL     1       2.038  -2.058  -4.645  0.00  0.00    +0.000 C 
ATOM     52  H   UNL     1       3.069  -1.745  -4.832  0.00  0.00    +0.000 HD
ATOM     53  H   UNL     1       1.392  -1.176  -4.698  0.00  0.00    +0.000 HD
ATOM     54  H   UNL     1       1.747  -2.783  -5.411  0.00  0.00    +0.000 HD
ENDBRANCH  50  51
ENDBRANCH  47  50
ENDBRANCH  44  47
ENDBRANCH   1  44
TORSDOF 10
