REMARK  Name = 
REMARK  6 active torsions:
REMARK  status: ('A' for Active; 'I' for Inactive)
REMARK    1  A    between atoms: C_1  and  C_2
REMARK    2  A    between atoms: C_5  and  C_6
REMARK    3  A    between atoms: C_6  and  N_7
REMARK    4  A    between atoms: C_6  and  C_22
REMARK    5  A    between atoms: C_8  and  C_10
REMARK    6  A    between atoms: C_10  and  N_11
REMARK                            x       y       z     vdW  Elec       q    Type
REMARK                         _______ _______ _______ _____ _____    ______ ____
ROOT
ATOM      1  C   UNL     1      -1.971   1.101  -0.852  0.00  0.00    +0.000 C 
ATOM      2  H   UNL     1      -2.248   1.629   0.071  0.00  0.00    +0.000 HD
ENDROOT
BRANCH   1   3
ATOM      3  C   UNL     1      -2.472   1.940  -2.031  0.00  0.00    +0.000 A 
ATOM      4  C   UNL     1      -1.779   2.002  -3.254  0.00  0.00    +0.000 A 
ATOM      5  C   UNL     1      -2.321   2.666  -4.355  0.00  0.00    +0.000 A 
ATOM      6  C   UNL     1      -3.561   3.289  -4.253  0.00  0.00    +0.000 A 
ATOM      7  C   UNL     1      -4.255   3.259  -3.045  0.00  0.00    +0.000 A 
ATOM      8  C   UNL     1      -3.717   2.588  -1.943  0.00  0.00    +0.000 A 
ATOM      9  H   UNL     1      -0.819   1.507  -3.374  0.00  0.00    +0.000 HD
ATOM     10  H   UNL     1      -1.780   2.682  -5.298  0.00  0.00    +0.000 HD
ATOM     11  H   UNL     1      -3.989   3.792  -5.116  0.00  0.00    +0.000 HD
ATOM     12  H   UNL     1      -5.225   3.743  -2.966  0.00  0.00    +0.000 HD
ATOM     13  H   UNL     1      -4.289   2.554  -1.017  0.00  0.00    +0.000 HD
ENDBRANCH   1   3
BRANCH   1  17
ATOM     14  C   UNL     1      -3.670  -2.913  -0.836  0.00  0.00    +0.000 A 
ATOM     15  C   UNL     1      -2.953  -2.449  -1.940  0.00  0.00    +0.000 A 
ATOM     16  C   UNL     1      -2.430  -1.157  -1.949  0.00  0.00    +0.000 A 
ATOM     17  C   UNL     1      -2.608  -0.290  -0.856  0.00  0.00    +0.000 A 
ATOM     18  C   UNL     1      -3.362  -0.747   0.235  0.00  0.00    +0.000 A 
ATOM     19  C   UNL     1      -3.890  -2.046   0.241  0.00  0.00    +0.000 A 
ATOM     20  H   UNL     1      -2.780  -3.093  -2.799  0.00  0.00    +0.000 HD
ATOM     21  H   UNL     1      -1.872  -0.834  -2.824  0.00  0.00    +0.000 HD
ATOM     22  H   UNL     1      -3.538  -0.104   1.095  0.00  0.00    +0.000 HD
ATOM     23  H   UNL     1      -4.463  -2.384   1.102  0.00  0.00    +0.000 HD
BRANCH  14  24
ATOM     24  C   UNL     1      -4.183  -4.322  -0.802  0.00  0.00    +0.000 C 
ATOM     25  H   UNL     1      -3.860  -4.884  -1.685  0.00  0.00    +0.000 HD
ATOM     26  H   UNL     1      -5.276  -4.333  -0.775  0.00  0.00    +0.000 HD
ATOM     27  H   UNL     1      -3.791  -4.842   0.078  0.00  0.00    +0.000 HD
ENDBRANCH  14  24
ENDBRANCH   1  17
BRANCH   1  28
ATOM     28  N   UNL     1      -0.516   0.958  -0.857  0.00  0.00    +0.000 N 
ATOM     29  C   UNL     1       0.345   1.771  -0.157  0.00  0.00    +0.000 C 
ATOM     30  O   UNL     1      -0.035   2.647   0.615  0.00  0.00    +0.000 OA
ATOM     31  H   UNL     1      -0.134   0.207  -1.418  0.00  0.00    +0.000 HD
BRANCH  29  32
ATOM     32  C   UNL     1       1.829   1.456  -0.384  0.00  0.00    +0.000 C 
ATOM     33  H   UNL     1       2.383   2.401  -0.382  0.00  0.00    +0.000 HD
ATOM     34  H   UNL     1       1.964   0.988  -1.365  0.00  0.00    +0.000 HD
BRANCH  32  35
ATOM     35  N   UNL     1       2.346   0.572   0.638  0.00  0.00    +0.000 N 
ATOM     36  C   UNL     1       2.184  -0.781   0.621  0.00  0.00    +0.000 C 
ATOM     37  O   UNL     1       1.641  -1.440  -0.248  0.00  0.00    +0.000 OA
ATOM     38  N   UNL     1       2.817  -1.315   1.725  0.00  0.00    +0.000 N 
ATOM     39  C   UNL     1       3.681  -0.348   2.358  0.00  0.00    +0.000 C 
ATOM     40  C   UNL     1       5.159  -0.704   2.141  0.00  0.00    +0.000 C 
ATOM     41  C   UNL     1       5.839  -0.379   3.465  0.00  0.00    +0.000 C 
ATOM     42  C   UNL     1       4.774  -0.699   4.500  0.00  0.00    +0.000 C 
ATOM     43  C   UNL     1       3.479  -0.197   3.868  0.00  0.00    +0.000 C 
ATOM     44  C   UNL     1       3.267   0.917   1.585  0.00  0.00    +0.000 C 
ATOM     45  O   UNL     1       3.758   2.030   1.747  0.00  0.00    +0.000 OA
ATOM     46  H   UNL     1       2.916  -2.320   1.805  0.00  0.00    +0.000 HD
ATOM     47  H   UNL     1       5.624  -0.165   1.310  0.00  0.00    +0.000 HD
ATOM     48  H   UNL     1       5.275  -1.778   1.942  0.00  0.00    +0.000 HD
ATOM     49  H   UNL     1       6.105   0.684   3.503  0.00  0.00    +0.000 HD
ATOM     50  H   UNL     1       6.751  -0.964   3.616  0.00  0.00    +0.000 HD
ATOM     51  H   UNL     1       4.978  -0.221   5.463  0.00  0.00    +0.000 HD
ATOM     52  H   UNL     1       4.717  -1.782   4.663  0.00  0.00    +0.000 HD
ATOM     53  H   UNL     1       3.338   0.857   4.142  0.00  0.00    +0.000 HD
ATOM     54  H   UNL     1       2.616  -0.751   4.249  0.00  0.00    +0.000 HD
ENDBRANCH  32  35
ENDBRANCH  29  32
ENDBRANCH   1  28
TORSDOF 6
