REMARK  Name = 
REMARK  4 active torsions:
REMARK  status: ('A' for Active; 'I' for Inactive)
REMARK    1  A    between atoms: N_1  and  C_2
REMARK    2  A    between atoms: N_4  and  C_5
REMARK    3  A    between atoms: C_13  and  N_14
REMARK    4  A    between atoms: N_14  and  C_15
REMARK                            x       y       z     vdW  Elec       q    Type
REMARK                         _______ _______ _______ _____ _____    ______ ____
ROOT
ATOM      1  C   UNL     1      -0.837   0.356   0.131  0.00  0.00    +0.000 A 
ATOM      2  C   UNL     1      -0.083   1.531   0.349  0.00  0.00    +0.000 A 
ATOM      3  N   UNL     1      -0.789   2.707   0.660  0.00  0.00    +0.000 N 
ATOM      4  N   UNL     1       1.255   1.573   0.208  0.00  0.00    +0.000 NA
ATOM      5  C   UNL     1       1.862   0.407  -0.045  0.00  0.00    +0.000 A 
ATOM      6  N   UNL     1       1.230  -0.749  -0.183  0.00  0.00    +0.000 N 
ATOM      7  C   UNL     1      -0.106  -0.813  -0.122  0.00  0.00    +0.000 A 
ATOM      8  H   UNL     1      -1.545   2.464   1.301  0.00  0.00    +0.000 HD
ATOM      9  H   UNL     1       2.944   0.406  -0.142  0.00  0.00    +0.000 HD
ATOM     10  H   UNL     1       1.746  -1.612  -0.327  0.00  0.00    +0.000 HD
ENDROOT
BRANCH   3  11
ATOM     11  C   UNL     1       0.000   3.795   1.228  0.00  0.00    +0.000 C 
ATOM     12  C   UNL     1       0.462   3.465   2.649  0.00  0.00    +0.000 C 
ATOM     13  C   UNL     1       0.602   4.805   3.358  0.00  0.00    +0.000 C 
ATOM     14  C   UNL     1      -0.184   5.816   2.531  0.00  0.00    +0.000 C 
ATOM     15  C   UNL     1      -0.891   5.007   1.449  0.00  0.00    +0.000 C 
ATOM     16  H   UNL     1       0.846   4.080   0.585  0.00  0.00    +0.000 HD
ATOM     17  H   UNL     1       1.400   2.902   2.660  0.00  0.00    +0.000 HD
ATOM     18  H   UNL     1      -0.285   2.853   3.171  0.00  0.00    +0.000 HD
ATOM     19  H   UNL     1       1.654   5.103   3.418  0.00  0.00    +0.000 HD
ATOM     20  H   UNL     1       0.222   4.739   4.383  0.00  0.00    +0.000 HD
ATOM     21  H   UNL     1       0.501   6.541   2.080  0.00  0.00    +0.000 HD
ATOM     22  H   UNL     1      -0.899   6.377   3.146  0.00  0.00    +0.000 HD
ATOM     23  H   UNL     1      -1.030   5.598   0.533  0.00  0.00    +0.000 HD
ATOM     24  H   UNL     1      -1.894   4.720   1.797  0.00  0.00    +0.000 HD
ENDBRANCH   3  11
BRANCH   1  25
ATOM     25  N   UNL     1      -2.226   0.348   0.415  0.00  0.00    +0.000 N 
ATOM     26  H   UNL     1      -2.655   1.251   0.193  0.00  0.00    +0.000 HD
ATOM     27  H   UNL     1      -2.793  -0.403   0.044  0.00  0.00    +0.000 HD
ENDBRANCH   1  25
BRANCH   7  28
ATOM     28  N   UNL     1      -0.706  -2.054  -0.354  0.00  0.00    +0.000 N 
ATOM     29  H   UNL     1      -1.711  -2.071  -0.199  0.00  0.00    +0.000 HD
BRANCH  28  30
ATOM     30  C   UNL     1      -0.301  -3.032  -1.287  0.00  0.00    +0.000 A 
ATOM     31  C   UNL     1       0.468  -2.693  -2.426  0.00  0.00    +0.000 A 
ATOM     32  C   UNL     1       0.914  -3.674  -3.319  0.00  0.00    +0.000 A 
ATOM     33  C   UNL     1       0.581  -4.975  -3.046  0.00  0.00    +0.000 A 
ATOM     34  C   UNL     1      -0.185  -5.316  -1.957  0.00  0.00    +0.000 A 
ATOM     35  C   UNL     1      -0.648  -4.370  -1.068  0.00  0.00    +0.000 A 
ATOM     36  O   UNL     1      -0.395  -6.657  -1.876  0.00  0.00    +0.000 OA
ATOM     37  C   UNL     1       0.436  -7.128  -2.961  0.00  0.00    +0.000 C 
ATOM     38  O   UNL     1       0.948  -6.056  -3.782  0.00  0.00    +0.000 OA
ATOM     39  H   UNL     1       0.697  -1.659  -2.668  0.00  0.00    +0.000 HD
ATOM     40  H   UNL     1       1.493  -3.419  -4.199  0.00  0.00    +0.000 HD
ATOM     41  H   UNL     1      -1.242  -4.681  -0.209  0.00  0.00    +0.000 HD
ATOM     42  H   UNL     1      -0.141  -7.814  -3.588  0.00  0.00    +0.000 HD
ATOM     43  H   UNL     1       1.288  -7.668  -2.531  0.00  0.00    +0.000 HD
ENDBRANCH  28  30
ENDBRANCH   7  28
TORSDOF 4
