MODEL 1
REMARK VINA RESULT:   -10.660      0.000      0.000
REMARK INTER + INTRA:         -12.075
REMARK INTER:                 -11.906
REMARK INTRA:                  -0.169
REMARK UNBOUND:                -0.169
REMARK  Name = 
REMARK  2 active torsions:
REMARK  status: ('A' for Active; 'I' for Inactive)
REMARK    1  A    between atoms: N_3  and  C_4
REMARK    2  A    between atoms: C_15  and  C_16
REMARK                            x       y       z     vdW  Elec       q    Type
REMARK                         _______ _______ _______ _____ _____    ______ ____
ROOT
ATOM      1  N   UNL     1      -8.563  -9.584  21.037  0.00  0.00    +0.000 N 
ATOM      2  C   UNL     1      -8.744  -9.853  19.729  0.00  0.00    +0.000 C 
ATOM      3  N   UNL     1      -9.118  -8.883  18.866  0.00  0.00    +0.000 N 
ATOM      4  N   UNL     1      -8.601 -11.136  19.322  0.00  0.00    +0.000 N 
ATOM      5  C   UNL     1      -8.668 -11.611  18.001  0.00  0.00    +0.000 A 
ATOM      6  N   UNL     1      -8.857 -10.782  17.038  0.00  0.00    +0.000 NA
ATOM      7  C   UNL     1      -8.854 -11.296  15.747  0.00  0.00    +0.000 A 
ATOM      8  C   UNL     1      -8.786 -12.616  15.494  0.00  0.00    +0.000 A 
ATOM      9  C   UNL     1      -8.671 -13.530  16.636  0.00  0.00    +0.000 A 
ATOM     10  O   UNL     1      -8.717 -14.744  16.495  0.00  0.00    +0.000 OA
ATOM     11  N   UNL     1      -8.524 -12.945  17.855  0.00  0.00    +0.000 N 
ATOM     12  H   UNL     1      -8.823  -8.677  21.408  0.00  0.00    +0.000 HD
ATOM     13  H   UNL     1      -8.268 -10.277  21.710  0.00  0.00    +0.000 HD
ATOM     14  H   UNL     1      -9.540  -9.198  17.991  0.00  0.00    +0.000 HD
ATOM     15  H   UNL     1      -8.391 -11.809  20.041  0.00  0.00    +0.000 HD
ATOM     16  H   UNL     1      -8.793 -13.043  14.501  0.00  0.00    +0.000 HD
ATOM     17  H   UNL     1      -8.433 -13.590  18.624  0.00  0.00    +0.000 HD
ENDROOT
BRANCH   3  18
ATOM     18  C   UNL     1      -8.911  -7.489  19.033  0.00  0.00    +0.000 A 
ATOM     19  C   UNL     1      -7.721  -6.979  19.549  0.00  0.00    +0.000 A 
ATOM     20  C   UNL     1      -7.564  -5.599  19.691  0.00  0.00    +0.000 A 
ATOM     21 CL   UNL     1      -6.093  -4.984  20.334  0.00  0.00    +0.000 Cl
ATOM     22  C   UNL     1      -8.582  -4.727  19.323  0.00  0.00    +0.000 A 
ATOM     23  C   UNL     1      -9.750  -5.244  18.771  0.00  0.00    +0.000 A 
ATOM     24 CL   UNL     1     -11.023  -4.181  18.319  0.00  0.00    +0.000 Cl
ATOM     25  C   UNL     1      -9.911  -6.620  18.601  0.00  0.00    +0.000 A 
ATOM     26  H   UNL     1      -6.889  -7.631  19.798  0.00  0.00    +0.000 HD
ATOM     27  H   UNL     1      -8.462  -3.653  19.455  0.00  0.00    +0.000 HD
ATOM     28  H   UNL     1     -10.831  -7.003  18.165  0.00  0.00    +0.000 HD
ENDBRANCH   3  18
BRANCH   7  29
ATOM     29  C   UNL     1      -8.896 -10.313  14.585  0.00  0.00    +0.000 C 
ATOM     30  F   UNL     1      -8.487  -9.073  14.963  0.00  0.00    +0.000 F 
ATOM     31  F   UNL     1      -8.087 -10.708  13.573  0.00  0.00    +0.000 F 
ATOM     32  F   UNL     1     -10.147 -10.185  14.083  0.00  0.00    +0.000 F 
ENDBRANCH   7  29
TORSDOF 2
ENDMDL
MODEL 2
REMARK VINA RESULT:   -10.522      0.193      1.888
REMARK INTER + INTRA:         -11.921
REMARK INTER:                 -11.862
REMARK INTRA:                  -0.060
REMARK UNBOUND:                -0.169
REMARK  Name = 
REMARK  2 active torsions:
REMARK  status: ('A' for Active; 'I' for Inactive)
REMARK    1  A    between atoms: N_3  and  C_4
REMARK    2  A    between atoms: C_15  and  C_16
REMARK                            x       y       z     vdW  Elec       q    Type
REMARK                         _______ _______ _______ _____ _____    ______ ____
ROOT
ATOM      1  N   UNL     1      -8.684  -9.339  21.034  0.00  0.00    +0.000 N 
ATOM      2  C   UNL     1      -8.859  -9.646  19.733  0.00  0.00    +0.000 C 
ATOM      3  N   UNL     1      -9.245  -8.704  18.845  0.00  0.00    +0.000 N 
ATOM      4  N   UNL     1      -8.696 -10.936  19.361  0.00  0.00    +0.000 N 
ATOM      5  C   UNL     1      -8.753 -11.448  18.053  0.00  0.00    +0.000 A 
ATOM      6  N   UNL     1      -8.953 -10.647  17.068  0.00  0.00    +0.000 NA
ATOM      7  C   UNL     1      -8.940 -11.195  15.791  0.00  0.00    +0.000 A 
ATOM      8  C   UNL     1      -8.852 -12.520  15.573  0.00  0.00    +0.000 A 
ATOM      9  C   UNL     1      -8.725 -13.402  16.739  0.00  0.00    +0.000 A 
ATOM     10  O   UNL     1      -8.753 -14.620  16.630  0.00  0.00    +0.000 OA
ATOM     11  N   UNL     1      -8.589 -12.782  17.942  0.00  0.00    +0.000 N 
ATOM     12  H   UNL     1      -8.959  -8.427  21.381  0.00  0.00    +0.000 HD
ATOM     13  H   UNL     1      -8.381 -10.010  21.726  0.00  0.00    +0.000 HD
ATOM     14  H   UNL     1      -9.662  -9.049  17.977  0.00  0.00    +0.000 HD
ATOM     15  H   UNL     1      -8.477 -11.588  20.098  0.00  0.00    +0.000 HD
ATOM     16  H   UNL     1      -8.850 -12.973  14.591  0.00  0.00    +0.000 HD
ATOM     17  H   UNL     1      -8.491 -13.405  18.728  0.00  0.00    +0.000 HD
ENDROOT
BRANCH   3  18
ATOM     18  C   UNL     1      -9.060  -7.304  18.975  0.00  0.00    +0.000 A 
ATOM     19  C   UNL     1     -10.052  -6.394  18.608  0.00  0.00    +0.000 A 
ATOM     20  C   UNL     1      -9.823  -5.025  18.758  0.00  0.00    +0.000 A 
ATOM     21 CL   UNL     1     -11.052  -3.916  18.297  0.00  0.00    +0.000 Cl
ATOM     22  C   UNL     1      -8.618  -4.558  19.269  0.00  0.00    +0.000 A 
ATOM     23  C   UNL     1      -7.651  -5.475  19.669  0.00  0.00    +0.000 A 
ATOM     24 CL   UNL     1      -6.151  -4.915  20.295  0.00  0.00    +0.000 Cl
ATOM     25  C   UNL     1      -7.876  -6.848  19.548  0.00  0.00    +0.000 A 
ATOM     26  H   UNL     1     -11.021  -6.730  18.254  0.00  0.00    +0.000 HD
ATOM     27  H   UNL     1      -8.437  -3.489  19.364  0.00  0.00    +0.000 HD
ATOM     28  H   UNL     1      -7.107  -7.547  19.870  0.00  0.00    +0.000 HD
ENDBRANCH   3  18
BRANCH   7  29
ATOM     29  C   UNL     1      -8.994 -10.244  14.604  0.00  0.00    +0.000 C 
ATOM     30  F   UNL     1      -8.583  -8.994  14.944  0.00  0.00    +0.000 F 
ATOM     31  F   UNL     1      -8.195 -10.665  13.594  0.00  0.00    +0.000 F 
ATOM     32  F   UNL     1     -10.250 -10.130  14.110  0.00  0.00    +0.000 F 
ENDBRANCH   7  29
TORSDOF 2
ENDMDL
MODEL 3
REMARK VINA RESULT:   -10.472      4.848      7.421
REMARK INTER + INTRA:         -11.865
REMARK INTER:                 -11.663
REMARK INTRA:                  -0.202
REMARK UNBOUND:                -0.169
REMARK  Name = 
REMARK  2 active torsions:
REMARK  status: ('A' for Active; 'I' for Inactive)
REMARK    1  A    between atoms: N_3  and  C_4
REMARK    2  A    between atoms: C_15  and  C_16
REMARK                            x       y       z     vdW  Elec       q    Type
REMARK                         _______ _______ _______ _____ _____    ______ ____
ROOT
ATOM      1  N   UNL     1     -11.749  -7.387  17.781  0.00  0.00    +0.000 N 
ATOM      2  C   UNL     1     -10.569  -7.015  18.317  0.00  0.00    +0.000 C 
ATOM      3  N   UNL     1      -9.552  -7.897  18.433  0.00  0.00    +0.000 N 
ATOM      4  N   UNL     1     -10.460  -5.752  18.789  0.00  0.00    +0.000 N 
ATOM      5  C   UNL     1      -9.303  -5.146  19.308  0.00  0.00    +0.000 A 
ATOM      6  N   UNL     1      -8.201  -5.806  19.338  0.00  0.00    +0.000 NA
ATOM      7  C   UNL     1      -7.074  -5.141  19.805  0.00  0.00    +0.000 A 
ATOM      8  C   UNL     1      -7.130  -3.902  20.328  0.00  0.00    +0.000 A 
ATOM      9  C   UNL     1      -8.434  -3.228  20.363  0.00  0.00    +0.000 A 
ATOM     10  O   UNL     1      -8.586  -2.152  20.923  0.00  0.00    +0.000 OA
ATOM     11  N   UNL     1      -9.457  -3.880  19.748  0.00  0.00    +0.000 N 
ATOM     12  H   UNL     1     -11.925  -8.363  17.572  0.00  0.00    +0.000 HD
ATOM     13  H   UNL     1     -12.527  -6.754  17.661  0.00  0.00    +0.000 HD
ATOM     14  H   UNL     1      -8.829  -7.661  19.115  0.00  0.00    +0.000 HD
ATOM     15  H   UNL     1     -11.287  -5.181  18.727  0.00  0.00    +0.000 HD
ATOM     16  H   UNL     1      -6.271  -3.366  20.708  0.00  0.00    +0.000 HD
ATOM     17  H   UNL     1     -10.340  -3.395  19.771  0.00  0.00    +0.000 HD
ENDROOT
BRANCH   3  18
ATOM     18  C   UNL     1      -9.364  -9.067  17.653  0.00  0.00    +0.000 A 
ATOM     19  C   UNL     1      -9.552  -9.067  16.271  0.00  0.00    +0.000 A 
ATOM     20  C   UNL     1      -9.351 -10.243  15.546  0.00  0.00    +0.000 A 
ATOM     21 CL   UNL     1      -9.591 -10.229  13.845  0.00  0.00    +0.000 Cl
ATOM     22  C   UNL     1      -8.965 -11.415  16.187  0.00  0.00    +0.000 A 
ATOM     23  C   UNL     1      -8.742 -11.395  17.560  0.00  0.00    +0.000 A 
ATOM     24 CL   UNL     1      -8.274 -12.837  18.370  0.00  0.00    +0.000 Cl
ATOM     25  C   UNL     1      -8.915 -10.219  18.294  0.00  0.00    +0.000 A 
ATOM     26  H   UNL     1      -9.802  -8.156  15.737  0.00  0.00    +0.000 HD
ATOM     27  H   UNL     1      -8.831 -12.334  15.620  0.00  0.00    +0.000 HD
ATOM     28  H   UNL     1      -8.732 -10.225  19.366  0.00  0.00    +0.000 HD
ENDBRANCH   3  18
BRANCH   7  29
ATOM     29  C   UNL     1      -5.727  -5.840  19.682  0.00  0.00    +0.000 C 
ATOM     30  F   UNL     1      -4.852  -5.410  20.629  0.00  0.00    +0.000 F 
ATOM     31  F   UNL     1      -5.850  -7.181  19.831  0.00  0.00    +0.000 F 
ATOM     32  F   UNL     1      -5.153  -5.613  18.476  0.00  0.00    +0.000 F 
ENDBRANCH   7  29
TORSDOF 2
ENDMDL
MODEL 4
REMARK VINA RESULT:   -10.336      4.856      7.292
REMARK INTER + INTRA:         -11.714
REMARK INTER:                 -11.641
REMARK INTRA:                  -0.073
REMARK UNBOUND:                -0.169
REMARK  Name = 
REMARK  2 active torsions:
REMARK  status: ('A' for Active; 'I' for Inactive)
REMARK    1  A    between atoms: N_3  and  C_4
REMARK    2  A    between atoms: C_15  and  C_16
REMARK                            x       y       z     vdW  Elec       q    Type
REMARK                         _______ _______ _______ _____ _____    ______ ____
ROOT
ATOM      1  N   UNL     1     -11.852  -7.631  17.675  0.00  0.00    +0.000 N 
ATOM      2  C   UNL     1     -10.714  -7.175  18.236  0.00  0.00    +0.000 C 
ATOM      3  N   UNL     1      -9.662  -7.998  18.435  0.00  0.00    +0.000 N 
ATOM      4  N   UNL     1     -10.685  -5.887  18.648  0.00  0.00    +0.000 N 
ATOM      5  C   UNL     1      -9.581  -5.199  19.180  0.00  0.00    +0.000 A 
ATOM      6  N   UNL     1      -8.451  -5.801  19.285  0.00  0.00    +0.000 NA
ATOM      7  C   UNL     1      -7.376  -5.058  19.760  0.00  0.00    +0.000 A 
ATOM      8  C   UNL     1      -7.514  -3.800  20.218  0.00  0.00    +0.000 A 
ATOM      9  C   UNL     1      -8.848  -3.192  20.170  0.00  0.00    +0.000 A 
ATOM     10  O   UNL     1      -9.075  -2.098  20.669  0.00  0.00    +0.000 OA
ATOM     11  N   UNL     1      -9.813  -3.923  19.550  0.00  0.00    +0.000 N 
ATOM     12  H   UNL     1     -11.972  -8.623  17.508  0.00  0.00    +0.000 HD
ATOM     13  H   UNL     1     -12.655  -7.044  17.494  0.00  0.00    +0.000 HD
ATOM     14  H   UNL     1      -8.978  -7.693  19.131  0.00  0.00    +0.000 HD
ATOM     15  H   UNL     1     -11.536  -5.361  18.527  0.00  0.00    +0.000 HD
ATOM     16  H   UNL     1      -6.698  -3.204  20.603  0.00  0.00    +0.000 HD
ATOM     17  H   UNL     1     -10.719  -3.482  19.515  0.00  0.00    +0.000 HD
ENDROOT
BRANCH   3  18
ATOM     18  C   UNL     1      -9.386  -9.193  17.722  0.00  0.00    +0.000 A 
ATOM     19  C   UNL     1      -8.933 -10.345  18.365  0.00  0.00    +0.000 A 
ATOM     20  C   UNL     1      -8.678 -11.498  17.620  0.00  0.00    +0.000 A 
ATOM     21 CL   UNL     1      -8.116 -12.908  18.425  0.00  0.00    +0.000 Cl
ATOM     22  C   UNL     1      -8.872 -11.511  16.244  0.00  0.00    +0.000 A 
ATOM     23  C   UNL     1      -9.361 -10.369  15.617  0.00  0.00    +0.000 A 
ATOM     24 CL   UNL     1      -9.597 -10.364  13.915  0.00  0.00    +0.000 Cl
ATOM     25  C   UNL     1      -9.644  -9.217  16.354  0.00  0.00    +0.000 A 
ATOM     26  H   UNL     1      -8.822 -10.380  19.444  0.00  0.00    +0.000 HD
ATOM     27  H   UNL     1      -8.651 -12.406  15.665  0.00  0.00    +0.000 HD
ATOM     28  H   UNL     1     -10.029  -8.336  15.844  0.00  0.00    +0.000 HD
ENDBRANCH   3  18
BRANCH   7  29
ATOM     29  C   UNL     1      -5.994  -5.693  19.723  0.00  0.00    +0.000 C 
ATOM     30  F   UNL     1      -5.389  -5.506  18.520  0.00  0.00    +0.000 F 
ATOM     31  F   UNL     1      -5.179  -5.162  20.666  0.00  0.00    +0.000 F 
ATOM     32  F   UNL     1      -6.050  -7.029  19.938  0.00  0.00    +0.000 F 
ENDBRANCH   7  29
TORSDOF 2
ENDMDL
MODEL 5
REMARK VINA RESULT:    -9.863      4.801      7.317
REMARK INTER + INTRA:         -11.185
REMARK INTER:                 -10.853
REMARK INTRA:                  -0.333
REMARK UNBOUND:                -0.169
REMARK  Name = 
REMARK  2 active torsions:
REMARK  status: ('A' for Active; 'I' for Inactive)
REMARK    1  A    between atoms: N_3  and  C_4
REMARK    2  A    between atoms: C_15  and  C_16
REMARK                            x       y       z     vdW  Elec       q    Type
REMARK                         _______ _______ _______ _____ _____    ______ ____
ROOT
ATOM      1  N   UNL     1     -11.849  -8.386  16.914  0.00  0.00    +0.000 N 
ATOM      2  C   UNL     1     -10.837  -7.790  17.576  0.00  0.00    +0.000 C 
ATOM      3  N   UNL     1      -9.772  -8.503  18.002  0.00  0.00    +0.000 N 
ATOM      4  N   UNL     1     -10.954  -6.471  17.851  0.00  0.00    +0.000 N 
ATOM      5  C   UNL     1      -9.986  -5.649  18.456  0.00  0.00    +0.000 A 
ATOM      6  N   UNL     1      -8.846  -6.146  18.777  0.00  0.00    +0.000 NA
ATOM      7  C   UNL     1      -7.903  -5.277  19.315  0.00  0.00    +0.000 A 
ATOM      8  C   UNL     1      -8.189  -3.997  19.616  0.00  0.00    +0.000 A 
ATOM      9  C   UNL     1      -9.540  -3.505  19.322  0.00  0.00    +0.000 A 
ATOM     10  O   UNL     1      -9.909  -2.392  19.668  0.00  0.00    +0.000 OA
ATOM     11  N   UNL     1     -10.354  -4.367  18.655  0.00  0.00    +0.000 N 
ATOM     12  H   UNL     1     -11.878  -9.397  16.837  0.00  0.00    +0.000 HD
ATOM     13  H   UNL     1     -12.654  -7.886  16.565  0.00  0.00    +0.000 HD
ATOM     14  H   UNL     1      -9.219  -8.080  18.750  0.00  0.00    +0.000 HD
ATOM     15  H   UNL     1     -11.811  -6.029  17.560  0.00  0.00    +0.000 HD
ATOM     16  H   UNL     1      -7.479  -3.304  20.046  0.00  0.00    +0.000 HD
ATOM     17  H   UNL     1     -11.273  -4.005  18.450  0.00  0.00    +0.000 HD
ENDROOT
BRANCH   3  18
ATOM     18  C   UNL     1      -9.317  -9.734  17.462  0.00  0.00    +0.000 A 
ATOM     19  C   UNL     1      -8.990  -9.868  16.113  0.00  0.00    +0.000 A 
ATOM     20  C   UNL     1      -8.543 -11.099  15.630  0.00  0.00    +0.000 A 
ATOM     21 CL   UNL     1      -8.149 -11.252  13.964  0.00  0.00    +0.000 Cl
ATOM     22  C   UNL     1      -8.421 -12.193  16.479  0.00  0.00    +0.000 A 
ATOM     23  C   UNL     1      -8.711 -12.038  17.830  0.00  0.00    +0.000 A 
ATOM     24 CL   UNL     1      -8.574 -13.383  18.893  0.00  0.00    +0.000 Cl
ATOM     25  C   UNL     1      -9.135 -10.806  18.332  0.00  0.00    +0.000 A 
ATOM     26  H   UNL     1      -9.027  -9.020  15.437  0.00  0.00    +0.000 HD
ATOM     27  H   UNL     1      -8.092 -13.156  16.092  0.00  0.00    +0.000 HD
ATOM     28  H   UNL     1      -9.354 -10.706  19.393  0.00  0.00    +0.000 HD
ENDBRANCH   3  18
BRANCH   7  29
ATOM     29  C   UNL     1      -6.491  -5.800  19.535  0.00  0.00    +0.000 C 
ATOM     30  F   UNL     1      -6.496  -7.086  19.976  0.00  0.00    +0.000 F 
ATOM     31  F   UNL     1      -5.769  -5.774  18.389  0.00  0.00    +0.000 F 
ATOM     32  F   UNL     1      -5.822  -5.066  20.456  0.00  0.00    +0.000 F 
ENDBRANCH   7  29
TORSDOF 2
ENDMDL
MODEL 6
REMARK VINA RESULT:    -9.822      2.188      2.901
REMARK INTER + INTRA:         -11.139
REMARK INTER:                 -11.058
REMARK INTRA:                  -0.081
REMARK UNBOUND:                -0.169
REMARK  Name = 
REMARK  2 active torsions:
REMARK  status: ('A' for Active; 'I' for Inactive)
REMARK    1  A    between atoms: N_3  and  C_4
REMARK    2  A    between atoms: C_15  and  C_16
REMARK                            x       y       z     vdW  Elec       q    Type
REMARK                         _______ _______ _______ _____ _____    ______ ____
ROOT
ATOM      1  N   UNL     1      -9.543  -6.902  19.764  0.00  0.00    +0.000 N 
ATOM      2  C   UNL     1      -9.539  -7.902  18.860  0.00  0.00    +0.000 C 
ATOM      3  N   UNL     1     -10.077  -7.729  17.633  0.00  0.00    +0.000 N 
ATOM      4  N   UNL     1      -9.036  -9.098  19.243  0.00  0.00    +0.000 N 
ATOM      5  C   UNL     1      -8.868 -10.236  18.436  0.00  0.00    +0.000 A 
ATOM      6  N   UNL     1      -9.184 -10.183  17.192  0.00  0.00    +0.000 NA
ATOM      7  C   UNL     1      -8.940 -11.317  16.426  0.00  0.00    +0.000 A 
ATOM      8  C   UNL     1      -8.513 -12.474  16.963  0.00  0.00    +0.000 A 
ATOM      9  C   UNL     1      -8.262 -12.512  18.408  0.00  0.00    +0.000 A 
ATOM     10  O   UNL     1      -7.981 -13.553  18.985  0.00  0.00    +0.000 OA
ATOM     11  N   UNL     1      -8.373 -11.325  19.062  0.00  0.00    +0.000 N 
ATOM     12  H   UNL     1     -10.058  -6.050  19.575  0.00  0.00    +0.000 HD
ATOM     13  H   UNL     1      -9.137  -6.986  20.686  0.00  0.00    +0.000 HD
ATOM     14  H   UNL     1     -10.329  -8.581  17.129  0.00  0.00    +0.000 HD
ATOM     15  H   UNL     1      -8.720  -9.163  20.198  0.00  0.00    +0.000 HD
ATOM     16  H   UNL     1      -8.327 -13.374  16.391  0.00  0.00    +0.000 HD
ATOM     17  H   UNL     1      -8.184 -11.369  20.051  0.00  0.00    +0.000 HD
ENDROOT
BRANCH   3  18
ATOM     18  C   UNL     1     -10.251  -6.491  16.962  0.00  0.00    +0.000 A 
ATOM     19  C   UNL     1      -9.669  -6.240  15.720  0.00  0.00    +0.000 A 
ATOM     20  C   UNL     1      -9.873  -5.007  15.097  0.00  0.00    +0.000 A 
ATOM     21 CL   UNL     1      -9.145  -4.710  13.569  0.00  0.00    +0.000 Cl
ATOM     22  C   UNL     1     -10.651  -4.027  15.702  0.00  0.00    +0.000 A 
ATOM     23  C   UNL     1     -11.260  -4.301  16.922  0.00  0.00    +0.000 A 
ATOM     24 CL   UNL     1     -12.218  -3.097  17.688  0.00  0.00    +0.000 Cl
ATOM     25  C   UNL     1     -11.085  -5.539  17.544  0.00  0.00    +0.000 A 
ATOM     26  H   UNL     1      -9.099  -7.004  15.200  0.00  0.00    +0.000 HD
ATOM     27  H   UNL     1     -10.789  -3.060  15.222  0.00  0.00    +0.000 HD
ATOM     28  H   UNL     1     -11.573  -5.734  18.496  0.00  0.00    +0.000 HD
ENDBRANCH   3  18
BRANCH   7  29
ATOM     29  C   UNL     1      -9.137 -11.218  14.920  0.00  0.00    +0.000 C 
ATOM     30  F   UNL     1      -8.082 -10.611  14.315  0.00  0.00    +0.000 F 
ATOM     31  F   UNL     1      -9.268 -12.443  14.356  0.00  0.00    +0.000 F 
ATOM     32  F   UNL     1     -10.243 -10.503  14.604  0.00  0.00    +0.000 F 
ENDBRANCH   7  29
TORSDOF 2
ENDMDL
MODEL 7
REMARK VINA RESULT:    -9.741      2.203      3.085
REMARK INTER + INTRA:         -11.049
REMARK INTER:                 -10.938
REMARK INTRA:                  -0.111
REMARK UNBOUND:                -0.169
REMARK  Name = 
REMARK  2 active torsions:
REMARK  status: ('A' for Active; 'I' for Inactive)
REMARK    1  A    between atoms: N_3  and  C_4
REMARK    2  A    between atoms: C_15  and  C_16
REMARK                            x       y       z     vdW  Elec       q    Type
REMARK                         _______ _______ _______ _____ _____    ______ ____
ROOT
ATOM      1  N   UNL     1      -9.572  -6.894  19.799  0.00  0.00    +0.000 N 
ATOM      2  C   UNL     1      -9.560  -7.893  18.894  0.00  0.00    +0.000 C 
ATOM      3  N   UNL     1     -10.118  -7.730  17.675  0.00  0.00    +0.000 N 
ATOM      4  N   UNL     1      -9.028  -9.079  19.269  0.00  0.00    +0.000 N 
ATOM      5  C   UNL     1      -8.848 -10.213  18.459  0.00  0.00    +0.000 A 
ATOM      6  N   UNL     1      -9.182 -10.165  17.220  0.00  0.00    +0.000 NA
ATOM      7  C   UNL     1      -8.926 -11.293  16.449  0.00  0.00    +0.000 A 
ATOM      8  C   UNL     1      -8.468 -12.442  16.979  0.00  0.00    +0.000 A 
ATOM      9  C   UNL     1      -8.197 -12.476  18.420  0.00  0.00    +0.000 A 
ATOM     10  O   UNL     1      -7.888 -13.512  18.992  0.00  0.00    +0.000 OA
ATOM     11  N   UNL     1      -8.323 -11.292  19.077  0.00  0.00    +0.000 N 
ATOM     12  H   UNL     1     -10.107  -6.052  19.617  0.00  0.00    +0.000 HD
ATOM     13  H   UNL     1      -9.152  -6.970  20.715  0.00  0.00    +0.000 HD
ATOM     14  H   UNL     1     -10.360  -8.586  17.173  0.00  0.00    +0.000 HD
ATOM     15  H   UNL     1      -8.698  -9.137  20.219  0.00  0.00    +0.000 HD
ATOM     16  H   UNL     1      -8.272 -13.337  16.404  0.00  0.00    +0.000 HD
ATOM     17  H   UNL     1      -8.120 -11.333  20.063  0.00  0.00    +0.000 HD
ENDROOT
BRANCH   3  18
ATOM     18  C   UNL     1     -10.326  -6.495  17.007  0.00  0.00    +0.000 A 
ATOM     19  C   UNL     1     -11.096  -5.477  17.568  0.00  0.00    +0.000 A 
ATOM     20  C   UNL     1     -11.270  -4.279  16.873  0.00  0.00    +0.000 A 
ATOM     21 CL   UNL     1     -12.225  -3.034  17.574  0.00  0.00    +0.000 Cl
ATOM     22  C   UNL     1     -10.683  -4.089  15.627  0.00  0.00    +0.000 A 
ATOM     23  C   UNL     1      -9.884  -5.095  15.094  0.00  0.00    +0.000 A 
ATOM     24 CL   UNL     1      -9.158  -4.882  13.551  0.00  0.00    +0.000 Cl
ATOM     25  C   UNL     1      -9.682  -6.289  15.789  0.00  0.00    +0.000 A 
ATOM     26  H   UNL     1     -11.524  -5.576  18.561  0.00  0.00    +0.000 HD
ATOM     27  H   UNL     1     -10.839  -3.161  15.080  0.00  0.00    +0.000 HD
ATOM     28  H   UNL     1      -9.051  -7.062  15.356  0.00  0.00    +0.000 HD
ENDBRANCH   3  18
BRANCH   7  29
ATOM     29  C   UNL     1      -9.145 -11.198  14.946  0.00  0.00    +0.000 C 
ATOM     30  F   UNL     1      -8.118 -10.555  14.329  0.00  0.00    +0.000 F 
ATOM     31  F   UNL     1      -9.243 -12.425  14.380  0.00  0.00    +0.000 F 
ATOM     32  F   UNL     1     -10.278 -10.518  14.646  0.00  0.00    +0.000 F 
ENDBRANCH   7  29
TORSDOF 2
ENDMDL
MODEL 8
REMARK VINA RESULT:    -8.953      4.789      7.063
REMARK INTER + INTRA:         -10.169
REMARK INTER:                 -10.451
REMARK INTRA:                   0.283
REMARK UNBOUND:                -0.169
REMARK  Name = 
REMARK  2 active torsions:
REMARK  status: ('A' for Active; 'I' for Inactive)
REMARK    1  A    between atoms: N_3  and  C_4
REMARK    2  A    between atoms: C_15  and  C_16
REMARK                            x       y       z     vdW  Elec       q    Type
REMARK                         _______ _______ _______ _____ _____    ______ ____
ROOT
ATOM      1  N   UNL     1      -8.460  -7.810  20.117  0.00  0.00    +0.000 N 
ATOM      2  C   UNL     1      -8.902  -6.949  19.179  0.00  0.00    +0.000 C 
ATOM      3  N   UNL     1      -8.943  -7.304  17.876  0.00  0.00    +0.000 N 
ATOM      4  N   UNL     1      -9.244  -5.702  19.576  0.00  0.00    +0.000 N 
ATOM      5  C   UNL     1      -9.799  -4.687  18.778  0.00  0.00    +0.000 A 
ATOM      6  N   UNL     1     -10.052  -4.922  17.540  0.00  0.00    +0.000 NA
ATOM      7  C   UNL     1     -10.656  -3.905  16.811  0.00  0.00    +0.000 A 
ATOM      8  C   UNL     1     -10.862  -2.676  17.318  0.00  0.00    +0.000 A 
ATOM      9  C   UNL     1     -10.462  -2.429  18.708  0.00  0.00    +0.000 A 
ATOM     10  O   UNL     1     -10.513  -1.311  19.202  0.00  0.00    +0.000 OA
ATOM     11  N   UNL     1     -10.023  -3.512  19.402  0.00  0.00    +0.000 N 
ATOM     12  H   UNL     1      -8.038  -8.689  19.839  0.00  0.00    +0.000 HD
ATOM     13  H   UNL     1      -8.430  -7.588  21.102  0.00  0.00    +0.000 HD
ATOM     14  H   UNL     1      -8.974  -6.537  17.202  0.00  0.00    +0.000 HD
ATOM     15  H   UNL     1      -9.118  -5.497  20.555  0.00  0.00    +0.000 HD
ATOM     16  H   UNL     1     -11.319  -1.864  16.769  0.00  0.00    +0.000 HD
ATOM     17  H   UNL     1      -9.767  -3.324  20.359  0.00  0.00    +0.000 HD
ENDROOT
BRANCH   3  18
ATOM     18  C   UNL     1      -9.019  -8.627  17.370  0.00  0.00    +0.000 A 
ATOM     19  C   UNL     1      -8.749  -9.737  18.171  0.00  0.00    +0.000 A 
ATOM     20  C   UNL     1      -8.841 -11.020  17.628  0.00  0.00    +0.000 A 
ATOM     21 CL   UNL     1      -8.500 -12.377  18.625  0.00  0.00    +0.000 Cl
ATOM     22  C   UNL     1      -9.198 -11.204  16.297  0.00  0.00    +0.000 A 
ATOM     23  C   UNL     1      -9.504 -10.093  15.518  0.00  0.00    +0.000 A 
ATOM     24 CL   UNL     1      -9.939 -10.301  13.868  0.00  0.00    +0.000 Cl
ATOM     25  C   UNL     1      -9.441  -8.805  16.055  0.00  0.00    +0.000 A 
ATOM     26  H   UNL     1      -8.517  -9.627  19.226  0.00  0.00    +0.000 HD
ATOM     27  H   UNL     1      -9.247 -12.205  15.874  0.00  0.00    +0.000 HD
ATOM     28  H   UNL     1      -9.687  -7.951  15.429  0.00  0.00    +0.000 HD
ENDBRANCH   3  18
BRANCH   7  29
ATOM     29  C   UNL     1     -11.128  -4.220  15.398  0.00  0.00    +0.000 C 
ATOM     30  F   UNL     1     -10.081  -4.404  14.550  0.00  0.00    +0.000 F 
ATOM     31  F   UNL     1     -11.871  -5.353  15.365  0.00  0.00    +0.000 F 
ATOM     32  F   UNL     1     -11.884  -3.220  14.887  0.00  0.00    +0.000 F 
ENDBRANCH   7  29
TORSDOF 2
ENDMDL
MODEL 9
REMARK VINA RESULT:    -8.810      4.898      7.173
REMARK INTER + INTRA:         -10.010
REMARK INTER:                  -9.996
REMARK INTRA:                  -0.013
REMARK UNBOUND:                -0.169
REMARK  Name = 
REMARK  2 active torsions:
REMARK  status: ('A' for Active; 'I' for Inactive)
REMARK    1  A    between atoms: N_3  and  C_4
REMARK    2  A    between atoms: C_15  and  C_16
REMARK                            x       y       z     vdW  Elec       q    Type
REMARK                         _______ _______ _______ _____ _____    ______ ____
ROOT
ATOM      1  N   UNL     1      -8.527  -9.259  14.274  0.00  0.00    +0.000 N 
ATOM      2  C   UNL     1      -9.100  -8.289  15.014  0.00  0.00    +0.000 C 
ATOM      3  N   UNL     1      -9.607  -8.559  16.237  0.00  0.00    +0.000 N 
ATOM      4  N   UNL     1      -9.206  -7.056  14.468  0.00  0.00    +0.000 N 
ATOM      5  C   UNL     1      -9.693  -5.897  15.097  0.00  0.00    +0.000 A 
ATOM      6  N   UNL     1     -10.067  -5.952  16.324  0.00  0.00    +0.000 NA
ATOM      7  C   UNL     1     -10.484  -4.765  16.916  0.00  0.00    +0.000 A 
ATOM      8  C   UNL     1     -10.621  -3.621  16.221  0.00  0.00    +0.000 A 
ATOM      9  C   UNL     1     -10.275  -3.635  14.795  0.00  0.00    +0.000 A 
ATOM     10  O   UNL     1     -10.479  -2.668  14.075  0.00  0.00    +0.000 OA
ATOM     11  N   UNL     1      -9.730  -4.790  14.327  0.00  0.00    +0.000 N 
ATOM     12  H   UNL     1      -8.580 -10.225  14.576  0.00  0.00    +0.000 HD
ATOM     13  H   UNL     1      -8.123  -9.095  13.363  0.00  0.00    +0.000 HD
ATOM     14  H   UNL     1     -10.291  -7.891  16.598  0.00  0.00    +0.000 HD
ATOM     15  H   UNL     1      -8.867  -6.957  13.525  0.00  0.00    +0.000 HD
ATOM     16  H   UNL     1     -10.953  -2.687  16.654  0.00  0.00    +0.000 HD
ATOM     17  H   UNL     1      -9.487  -4.775  13.349  0.00  0.00    +0.000 HD
ENDROOT
BRANCH   3  18
ATOM     18  C   UNL     1      -9.226  -9.632  17.084  0.00  0.00    +0.000 A 
ATOM     19  C   UNL     1      -9.145 -10.944  16.618  0.00  0.00    +0.000 A 
ATOM     20  C   UNL     1      -8.762 -11.965  17.490  0.00  0.00    +0.000 A 
ATOM     21 CL   UNL     1      -8.672 -13.577  16.903  0.00  0.00    +0.000 Cl
ATOM     22  C   UNL     1      -8.459 -11.688  18.818  0.00  0.00    +0.000 A 
ATOM     23  C   UNL     1      -8.504 -10.371  19.263  0.00  0.00    +0.000 A 
ATOM     24 CL   UNL     1      -8.142 -10.012  20.904  0.00  0.00    +0.000 Cl
ATOM     25  C   UNL     1      -8.862  -9.336  18.396  0.00  0.00    +0.000 A 
ATOM     26  H   UNL     1      -9.326 -11.183  15.575  0.00  0.00    +0.000 HD
ATOM     27  H   UNL     1      -8.182 -12.491  19.498  0.00  0.00    +0.000 HD
ATOM     28  H   UNL     1      -8.887  -8.313  18.764  0.00  0.00    +0.000 HD
ENDBRANCH   3  18
BRANCH   7  29
ATOM     29  C   UNL     1     -10.759  -4.770  18.413  0.00  0.00    +0.000 C 
ATOM     30  F   UNL     1     -11.812  -3.971  18.731  0.00  0.00    +0.000 F 
ATOM     31  F   UNL     1     -11.054  -6.014  18.859  0.00  0.00    +0.000 F 
ATOM     32  F   UNL     1      -9.693  -4.324  19.120  0.00  0.00    +0.000 F 
ENDBRANCH   7  29
TORSDOF 2
ENDMDL
