MODEL 1
REMARK VINA RESULT:    -7.740      0.000      0.000
REMARK INTER + INTRA:         -11.373
REMARK INTER:                  -9.776
REMARK INTRA:                  -1.597
REMARK UNBOUND:                -1.597
REMARK  Name = 
REMARK  5 active torsions:
REMARK  status: ('A' for Active; 'I' for Inactive)
REMARK    1  A    between atoms: C_2  and  C_3
REMARK    2  A    between atoms: C_4  and  N_5
REMARK    3  A    between atoms: C_12  and  C_13
REMARK    4  A    between atoms: C_20  and  C_21
REMARK    5  A    between atoms: C_25  and  C_26
REMARK                            x       y       z     vdW  Elec       q    Type
REMARK                         _______ _______ _______ _____ _____    ______ ____
ROOT
ATOM      1  C   UNL     1      -8.355  -5.651  19.145  0.00  0.00    +0.000 C 
ATOM      2  C   UNL     1      -8.367  -4.368  19.566  0.00  0.00    +0.000 C 
ATOM      3  O   UNL     1      -9.356  -3.480  19.159  0.00  0.00    +0.000 OA
ATOM      4  C   UNL     1     -10.403  -3.913  18.368  0.00  0.00    +0.000 C 
ATOM      5  C   UNL     1     -10.441  -5.148  17.841  0.00  0.00    +0.000 C 
ATOM      6  C   UNL     1     -11.671  -5.527  17.093  0.00  0.00    +0.000 C 
ATOM      7  O   UNL     1     -11.963  -6.716  16.990  0.00  0.00    +0.000 OA
ATOM      8  C   UNL     1     -12.623  -4.454  16.605  0.00  0.00    +0.000 C 
ATOM      9  C   UNL     1     -12.014  -3.044  16.653  0.00  0.00    +0.000 C 
ATOM     10  C   UNL     1     -11.424  -2.849  18.062  0.00  0.00    +0.000 C 
ATOM     11  C   UNL     1      -9.362  -6.173  18.113  0.00  0.00    +0.000 C 
ATOM     12  H   UNL     1     -13.495  -4.491  17.271  0.00  0.00    +0.000 HD
ATOM     13  H   UNL     1     -12.964  -4.725  15.601  0.00  0.00    +0.000 HD
ATOM     14  H   UNL     1     -12.833  -2.318  16.543  0.00  0.00    +0.000 HD
ATOM     15  H   UNL     1     -12.221  -2.906  18.815  0.00  0.00    +0.000 HD
ATOM     16  H   UNL     1     -10.983  -1.850  18.154  0.00  0.00    +0.000 HD
ATOM     17  H   UNL     1      -9.869  -7.013  18.599  0.00  0.00    +0.000 HD
ENDROOT
BRANCH   9  18
ATOM     18  C   UNL     1     -11.058  -2.765  15.489  0.00  0.00    +0.000 A 
ATOM     19  C   UNL     1     -11.212  -3.476  14.286  0.00  0.00    +0.000 A 
ATOM     20  C   UNL     1     -10.346  -3.270  13.209  0.00  0.00    +0.000 A 
ATOM     21  C   UNL     1      -9.312  -2.344  13.309  0.00  0.00    +0.000 A 
ATOM     22  C   UNL     1      -9.156  -1.612  14.478  0.00  0.00    +0.000 A 
ATOM     23  C   UNL     1     -10.029  -1.810  15.550  0.00  0.00    +0.000 A 
ATOM     24  H   UNL     1     -12.006  -4.211  14.172  0.00  0.00    +0.000 HD
ATOM     25  H   UNL     1     -10.467  -3.845  12.295  0.00  0.00    +0.000 HD
ATOM     26  H   UNL     1      -8.621  -2.202  12.483  0.00  0.00    +0.000 HD
ATOM     27  H   UNL     1      -8.341  -0.899  14.569  0.00  0.00    +0.000 HD
ATOM     28  H   UNL     1      -9.855  -1.204  16.432  0.00  0.00    +0.000 HD
ENDBRANCH   9  18
BRANCH  11  29
ATOM     29  C   UNL     1      -8.583  -6.686  16.870  0.00  0.00    +0.000 C 
ATOM     30  C   UNL     1      -8.782  -5.803  15.678  0.00  0.00    +0.000 C 
ATOM     31  N   UNL     1      -9.237  -6.427  14.644  0.00  0.00    +0.000 NA
ATOM     32  N   UNL     1      -9.388  -7.799  14.984  0.00  0.00    +0.000 NA
ATOM     33  C   UNL     1      -9.000  -7.975  16.215  0.00  0.00    +0.000 C 
ATOM     34  H   UNL     1      -7.506  -6.748  17.064  0.00  0.00    +0.000 HD
ATOM     35  H   UNL     1      -8.532  -4.734  15.689  0.00  0.00    +0.000 HD
BRANCH  33  36
ATOM     36  C   UNL     1      -8.897  -9.308  16.848  0.00  0.00    +0.000 A 
ATOM     37  C   UNL     1      -8.892 -10.444  16.024  0.00  0.00    +0.000 A 
ATOM     38  C   UNL     1      -8.803 -11.720  16.588  0.00  0.00    +0.000 A 
ATOM     39  C   UNL     1      -8.743 -11.855  17.969  0.00  0.00    +0.000 A 
ATOM     40  F   UNL     1      -8.665 -13.075  18.512  0.00  0.00    +0.000 F 
ATOM     41  C   UNL     1      -8.756 -10.740  18.798  0.00  0.00    +0.000 A 
ATOM     42  C   UNL     1      -8.810  -9.464  18.236  0.00  0.00    +0.000 A 
ATOM     43  H   UNL     1      -8.957 -10.343  14.943  0.00  0.00    +0.000 HD
ATOM     44  H   UNL     1      -8.786 -12.600  15.957  0.00  0.00    +0.000 HD
ATOM     45  H   UNL     1      -8.723 -10.868  19.875  0.00  0.00    +0.000 HD
ATOM     46  H   UNL     1      -8.795  -8.619  18.912  0.00  0.00    +0.000 HD
ENDBRANCH  33  36
ENDBRANCH  11  29
BRANCH   2  47
ATOM     47  N   UNL     1      -7.450  -3.786  20.403  0.00  0.00    +0.000 N 
ATOM     48  H   UNL     1      -7.725  -3.653  21.372  0.00  0.00    +0.000 HD
ATOM     49  H   UNL     1      -6.995  -2.975  19.991  0.00  0.00    +0.000 HD
ENDBRANCH   2  47
BRANCH   1  51
ATOM     50  N   UNL     1      -6.547  -7.288  20.009  0.00  0.00    +0.000 NA
ATOM     51  C   UNL     1      -7.365  -6.557  19.635  0.00  0.00    +0.000 C 
ENDBRANCH   1  51
TORSDOF 5
ENDMDL
MODEL 2
REMARK VINA RESULT:    -7.103      3.757      5.304
REMARK INTER + INTRA:         -10.569
REMARK INTER:                  -8.736
REMARK INTRA:                  -1.833
REMARK UNBOUND:                -1.597
REMARK  Name = 
REMARK  5 active torsions:
REMARK  status: ('A' for Active; 'I' for Inactive)
REMARK    1  A    between atoms: C_2  and  C_3
REMARK    2  A    between atoms: C_4  and  N_5
REMARK    3  A    between atoms: C_12  and  C_13
REMARK    4  A    between atoms: C_20  and  C_21
REMARK    5  A    between atoms: C_25  and  C_26
REMARK                            x       y       z     vdW  Elec       q    Type
REMARK                         _______ _______ _______ _____ _____    ______ ____
ROOT
ATOM      1  C   UNL     1      -8.066  -2.565  21.478  0.00  0.00    +0.000 C 
ATOM      2  C   UNL     1      -7.737  -1.548  22.303  0.00  0.00    +0.000 C 
ATOM      3  O   UNL     1      -8.667  -0.585  22.674  0.00  0.00    +0.000 OA
ATOM      4  C   UNL     1      -9.983  -0.687  22.264  0.00  0.00    +0.000 C 
ATOM      5  C   UNL     1     -10.390  -1.619  21.386  0.00  0.00    +0.000 C 
ATOM      6  C   UNL     1     -11.850  -1.692  21.104  0.00  0.00    +0.000 C 
ATOM      7  O   UNL     1     -12.327  -2.749  20.701  0.00  0.00    +0.000 OA
ATOM      8  C   UNL     1     -12.750  -0.525  21.459  0.00  0.00    +0.000 C 
ATOM      9  C   UNL     1     -11.970   0.763  21.770  0.00  0.00    +0.000 C 
ATOM     10  C   UNL     1     -10.880   0.398  22.796  0.00  0.00    +0.000 C 
ATOM     11  C   UNL     1      -9.446  -2.655  20.816  0.00  0.00    +0.000 C 
ATOM     12  H   UNL     1     -13.310  -0.829  22.353  0.00  0.00    +0.000 HD
ATOM     13  H   UNL     1     -13.473  -0.386  20.649  0.00  0.00    +0.000 HD
ATOM     14  H   UNL     1     -12.658   1.463  22.265  0.00  0.00    +0.000 HD
ATOM     15  H   UNL     1     -11.342   0.043  23.726  0.00  0.00    +0.000 HD
ATOM     16  H   UNL     1     -10.298   1.289  23.062  0.00  0.00    +0.000 HD
ATOM     17  H   UNL     1      -9.853  -3.625  21.121  0.00  0.00    +0.000 HD
ENDROOT
BRANCH   9  18
ATOM     18  C   UNL     1     -11.482   1.485  20.511  0.00  0.00    +0.000 A 
ATOM     19  C   UNL     1     -12.209   1.354  19.316  0.00  0.00    +0.000 A 
ATOM     20  C   UNL     1     -11.784   1.977  18.139  0.00  0.00    +0.000 A 
ATOM     21  C   UNL     1     -10.626   2.749  18.134  0.00  0.00    +0.000 A 
ATOM     22  C   UNL     1      -9.905   2.913  19.309  0.00  0.00    +0.000 A 
ATOM     23  C   UNL     1     -10.337   2.300  20.487  0.00  0.00    +0.000 A 
ATOM     24  H   UNL     1     -13.117   0.756  19.280  0.00  0.00    +0.000 HD
ATOM     25  H   UNL     1     -12.347   1.846  17.219  0.00  0.00    +0.000 HD
ATOM     26  H   UNL     1     -10.279   3.211  17.215  0.00  0.00    +0.000 HD
ATOM     27  H   UNL     1      -8.991   3.501  19.308  0.00  0.00    +0.000 HD
ATOM     28  H   UNL     1      -9.730   2.471  21.370  0.00  0.00    +0.000 HD
ENDBRANCH   9  18
BRANCH  11  29
ATOM     29  C   UNL     1      -9.263  -2.633  19.272  0.00  0.00    +0.000 C 
ATOM     30  C   UNL     1      -9.806  -1.378  18.661  0.00  0.00    +0.000 C 
ATOM     31  N   UNL     1     -10.687  -1.592  17.743  0.00  0.00    +0.000 NA
ATOM     32  N   UNL     1     -10.846  -2.997  17.597  0.00  0.00    +0.000 NA
ATOM     33  C   UNL     1     -10.038  -3.602  18.421  0.00  0.00    +0.000 C 
ATOM     34  H   UNL     1      -8.208  -2.714  18.989  0.00  0.00    +0.000 HD
ATOM     35  H   UNL     1      -9.455  -0.381  18.956  0.00  0.00    +0.000 HD
BRANCH  33  36
ATOM     36  C   UNL     1      -9.847  -5.068  18.437  0.00  0.00    +0.000 A 
ATOM     37  C   UNL     1      -8.539  -5.575  18.464  0.00  0.00    +0.000 A 
ATOM     38  C   UNL     1      -8.321  -6.957  18.473  0.00  0.00    +0.000 A 
ATOM     39  C   UNL     1      -9.408  -7.821  18.431  0.00  0.00    +0.000 A 
ATOM     40  F   UNL     1      -9.203  -9.143  18.432  0.00  0.00    +0.000 F 
ATOM     41  C   UNL     1     -10.709  -7.333  18.396  0.00  0.00    +0.000 A 
ATOM     42  C   UNL     1     -10.930  -5.956  18.422  0.00  0.00    +0.000 A 
ATOM     43  H   UNL     1      -7.685  -4.902  18.478  0.00  0.00    +0.000 HD
ATOM     44  H   UNL     1      -7.315  -7.355  18.506  0.00  0.00    +0.000 HD
ATOM     45  H   UNL     1     -11.543  -8.025  18.349  0.00  0.00    +0.000 HD
ATOM     46  H   UNL     1     -11.957  -5.614  18.416  0.00  0.00    +0.000 HD
ENDBRANCH  33  36
ENDBRANCH  11  29
BRANCH   2  47
ATOM     47  N   UNL     1      -6.502  -1.328  22.857  0.00  0.00    +0.000 N 
ATOM     48  H   UNL     1      -6.284  -1.824  23.716  0.00  0.00    +0.000 HD
ATOM     49  H   UNL     1      -6.245  -0.344  22.876  0.00  0.00    +0.000 HD
ENDBRANCH   2  47
BRANCH   1  51
ATOM     50  N   UNL     1      -6.309  -4.386  20.934  0.00  0.00    +0.000 NA
ATOM     51  C   UNL     1      -7.107  -3.578  21.170  0.00  0.00    +0.000 C 
ENDBRANCH   1  51
TORSDOF 5
ENDMDL
MODEL 3
REMARK VINA RESULT:    -6.831      8.556     11.647
REMARK INTER + INTRA:         -10.226
REMARK INTER:                  -8.876
REMARK INTRA:                  -1.350
REMARK UNBOUND:                -1.597
REMARK  Name = 
REMARK  5 active torsions:
REMARK  status: ('A' for Active; 'I' for Inactive)
REMARK    1  A    between atoms: C_2  and  C_3
REMARK    2  A    between atoms: C_4  and  N_5
REMARK    3  A    between atoms: C_12  and  C_13
REMARK    4  A    between atoms: C_20  and  C_21
REMARK    5  A    between atoms: C_25  and  C_26
REMARK                            x       y       z     vdW  Elec       q    Type
REMARK                         _______ _______ _______ _____ _____    ______ ____
ROOT
ATOM      1  C   UNL     1     -11.634   1.315  22.291  0.00  0.00    +0.000 C 
ATOM      2  C   UNL     1     -12.736   1.920  21.799  0.00  0.00    +0.000 C 
ATOM      3  O   UNL     1     -12.805   3.301  21.660  0.00  0.00    +0.000 OA
ATOM      4  C   UNL     1     -11.710   4.090  21.955  0.00  0.00    +0.000 C 
ATOM      5  C   UNL     1     -10.597   3.591  22.518  0.00  0.00    +0.000 C 
ATOM      6  C   UNL     1      -9.449   4.522  22.690  0.00  0.00    +0.000 C 
ATOM      7  O   UNL     1      -8.312   4.062  22.758  0.00  0.00    +0.000 OA
ATOM      8  C   UNL     1      -9.671   6.020  22.626  0.00  0.00    +0.000 C 
ATOM      9  C   UNL     1     -11.154   6.412  22.725  0.00  0.00    +0.000 C 
ATOM     10  C   UNL     1     -11.922   5.558  21.697  0.00  0.00    +0.000 C 
ATOM     11  C   UNL     1     -10.443   2.118  22.828  0.00  0.00    +0.000 C 
ATOM     12  H   UNL     1      -9.278   6.347  21.654  0.00  0.00    +0.000 HD
ATOM     13  H   UNL     1      -9.064   6.494  23.403  0.00  0.00    +0.000 HD
ATOM     14  H   UNL     1     -11.249   7.461  22.407  0.00  0.00    +0.000 HD
ATOM     15  H   UNL     1     -11.572   5.787  20.682  0.00  0.00    +0.000 HD
ATOM     16  H   UNL     1     -12.989   5.807  21.720  0.00  0.00    +0.000 HD
ATOM     17  H   UNL     1      -9.578   1.783  22.245  0.00  0.00    +0.000 HD
ENDROOT
BRANCH   9  18
ATOM     18  C   UNL     1     -11.690   6.366  24.158  0.00  0.00    +0.000 A 
ATOM     19  C   UNL     1     -10.794   6.499  25.233  0.00  0.00    +0.000 A 
ATOM     20  C   UNL     1     -11.239   6.438  26.557  0.00  0.00    +0.000 A 
ATOM     21  C   UNL     1     -12.590   6.248  26.834  0.00  0.00    +0.000 A 
ATOM     22  C   UNL     1     -13.496   6.140  25.788  0.00  0.00    +0.000 A 
ATOM     23  C   UNL     1     -13.053   6.213  24.467  0.00  0.00    +0.000 A 
ATOM     24  H   UNL     1      -9.730   6.644  25.056  0.00  0.00    +0.000 HD
ATOM     25  H   UNL     1     -10.528   6.521  27.375  0.00  0.00    +0.000 HD
ATOM     26  H   UNL     1     -12.933   6.173  27.861  0.00  0.00    +0.000 HD
ATOM     27  H   UNL     1     -14.550   5.976  25.997  0.00  0.00    +0.000 HD
ATOM     28  H   UNL     1     -13.813   6.124  23.697  0.00  0.00    +0.000 HD
ENDBRANCH   9  18
BRANCH  11  29
ATOM     29  C   UNL     1     -10.229   1.756  24.324  0.00  0.00    +0.000 C 
ATOM     30  C   UNL     1     -10.013   2.973  25.170  0.00  0.00    +0.000 C 
ATOM     31  N   UNL     1      -8.912   2.944  25.842  0.00  0.00    +0.000 NA
ATOM     32  N   UNL     1      -8.251   1.717  25.562  0.00  0.00    +0.000 NA
ATOM     33  C   UNL     1      -8.983   1.021  24.738  0.00  0.00    +0.000 C 
ATOM     34  H   UNL     1     -11.086   1.211  24.735  0.00  0.00    +0.000 HD
ATOM     35  H   UNL     1     -10.745   3.788  25.225  0.00  0.00    +0.000 HD
BRANCH  33  36
ATOM     36  C   UNL     1      -8.658  -0.366  24.342  0.00  0.00    +0.000 A 
ATOM     37  C   UNL     1      -9.195  -1.422  25.094  0.00  0.00    +0.000 A 
ATOM     38  C   UNL     1      -8.904  -2.747  24.753  0.00  0.00    +0.000 A 
ATOM     39  C   UNL     1      -8.062  -3.007  23.679  0.00  0.00    +0.000 A 
ATOM     40  F   UNL     1      -7.776  -4.273  23.354  0.00  0.00    +0.000 F 
ATOM     41  C   UNL     1      -7.517  -1.971  22.930  0.00  0.00    +0.000 A 
ATOM     42  C   UNL     1      -7.833  -0.650  23.247  0.00  0.00    +0.000 A 
ATOM     43  H   UNL     1      -9.840  -1.222  25.947  0.00  0.00    +0.000 HD
ATOM     44  H   UNL     1      -9.325  -3.567  25.320  0.00  0.00    +0.000 HD
ATOM     45  H   UNL     1      -6.849  -2.196  22.105  0.00  0.00    +0.000 HD
ATOM     46  H   UNL     1      -7.408   0.129  22.628  0.00  0.00    +0.000 HD
ENDBRANCH  33  36
ENDBRANCH  11  29
BRANCH   2  47
ATOM     47  N   UNL     1     -13.886   1.292  21.394  0.00  0.00    +0.000 N 
ATOM     48  H   UNL     1     -13.800   0.336  21.062  0.00  0.00    +0.000 HD
ATOM     49  H   UNL     1     -14.472   1.879  20.805  0.00  0.00    +0.000 HD
ENDBRANCH   2  47
BRANCH   1  51
ATOM     50  N   UNL     1     -11.534  -1.269  22.394  0.00  0.00    +0.000 NA
ATOM     51  C   UNL     1     -11.567  -0.110  22.357  0.00  0.00    +0.000 C 
ENDBRANCH   1  51
TORSDOF 5
ENDMDL
MODEL 4
REMARK VINA RESULT:    -6.583      3.817      6.569
REMARK INTER + INTRA:          -9.912
REMARK INTER:                  -8.190
REMARK INTRA:                  -1.722
REMARK UNBOUND:                -1.597
REMARK  Name = 
REMARK  5 active torsions:
REMARK  status: ('A' for Active; 'I' for Inactive)
REMARK    1  A    between atoms: C_2  and  C_3
REMARK    2  A    between atoms: C_4  and  N_5
REMARK    3  A    between atoms: C_12  and  C_13
REMARK    4  A    between atoms: C_20  and  C_21
REMARK    5  A    between atoms: C_25  and  C_26
REMARK                            x       y       z     vdW  Elec       q    Type
REMARK                         _______ _______ _______ _____ _____    ______ ____
ROOT
ATOM      1  C   UNL     1     -10.603  -4.168  17.088  0.00  0.00    +0.000 C 
ATOM      2  C   UNL     1     -11.230  -4.334  15.904  0.00  0.00    +0.000 C 
ATOM      3  O   UNL     1     -11.295  -3.309  14.968  0.00  0.00    +0.000 OA
ATOM      4  C   UNL     1     -10.649  -2.109  15.198  0.00  0.00    +0.000 C 
ATOM      5  C   UNL     1     -10.063  -1.823  16.372  0.00  0.00    +0.000 C 
ATOM      6  C   UNL     1      -9.312  -0.541  16.459  0.00  0.00    +0.000 C 
ATOM      7  O   UNL     1      -8.413  -0.432  17.291  0.00  0.00    +0.000 OA
ATOM      8  C   UNL     1      -9.551   0.550  15.435  0.00  0.00    +0.000 C 
ATOM      9  C   UNL     1     -10.821   0.322  14.600  0.00  0.00    +0.000 C 
ATOM     10  C   UNL     1     -10.763  -1.122  14.066  0.00  0.00    +0.000 C 
ATOM     11  C   UNL     1     -10.026  -2.813  17.515  0.00  0.00    +0.000 C 
ATOM     12  H   UNL     1      -8.678   0.543  14.769  0.00  0.00    +0.000 HD
ATOM     13  H   UNL     1      -9.563   1.515  15.952  0.00  0.00    +0.000 HD
ATOM     14  H   UNL     1     -10.778   0.990  13.728  0.00  0.00    +0.000 HD
ATOM     15  H   UNL     1      -9.892  -1.245  13.409  0.00  0.00    +0.000 HD
ATOM     16  H   UNL     1     -11.646  -1.335  13.452  0.00  0.00    +0.000 HD
ATOM     17  H   UNL     1      -8.965  -2.997  17.712  0.00  0.00    +0.000 HD
ENDROOT
BRANCH   9  18
ATOM     18  C   UNL     1     -12.104   0.702  15.346  0.00  0.00    +0.000 A 
ATOM     19  C   UNL     1     -12.079   1.770  16.259  0.00  0.00    +0.000 A 
ATOM     20  C   UNL     1     -13.221   2.133  16.979  0.00  0.00    +0.000 A 
ATOM     21  C   UNL     1     -14.413   1.439  16.796  0.00  0.00    +0.000 A 
ATOM     22  C   UNL     1     -14.468   0.397  15.881  0.00  0.00    +0.000 A 
ATOM     23  C   UNL     1     -13.330   0.043  15.154  0.00  0.00    +0.000 A 
ATOM     24  H   UNL     1     -11.164   2.333  16.432  0.00  0.00    +0.000 HD
ATOM     25  H   UNL     1     -13.176   2.947  17.696  0.00  0.00    +0.000 HD
ATOM     26  H   UNL     1     -15.294   1.702  17.374  0.00  0.00    +0.000 HD
ATOM     27  H   UNL     1     -15.392  -0.159  15.745  0.00  0.00    +0.000 HD
ATOM     28  H   UNL     1     -13.442  -0.778  14.453  0.00  0.00    +0.000 HD
ENDBRANCH   9  18
BRANCH  11  29
ATOM     29  C   UNL     1     -10.726  -2.363  18.828  0.00  0.00    +0.000 C 
ATOM     30  C   UNL     1     -11.692  -1.242  18.593  0.00  0.00    +0.000 C 
ATOM     31  N   UNL     1     -11.455  -0.199  19.315  0.00  0.00    +0.000 NA
ATOM     32  N   UNL     1     -10.327  -0.472  20.136  0.00  0.00    +0.000 NA
ATOM     33  C   UNL     1      -9.919  -1.688  19.904  0.00  0.00    +0.000 C 
ATOM     34  H   UNL     1     -11.277  -3.187  19.296  0.00  0.00    +0.000 HD
ATOM     35  H   UNL     1     -12.533  -1.327  17.893  0.00  0.00    +0.000 HD
BRANCH  33  36
ATOM     36  C   UNL     1      -8.848  -2.345  20.684  0.00  0.00    +0.000 A 
ATOM     37  C   UNL     1      -8.313  -1.669  21.791  0.00  0.00    +0.000 A 
ATOM     38  C   UNL     1      -7.295  -2.256  22.548  0.00  0.00    +0.000 A 
ATOM     39  C   UNL     1      -6.801  -3.502  22.180  0.00  0.00    +0.000 A 
ATOM     40  F   UNL     1      -5.822  -4.064  22.898  0.00  0.00    +0.000 F 
ATOM     41  C   UNL     1      -7.315  -4.180  21.081  0.00  0.00    +0.000 A 
ATOM     42  C   UNL     1      -8.356  -3.611  20.345  0.00  0.00    +0.000 A 
ATOM     43  H   UNL     1      -8.685  -0.686  22.071  0.00  0.00    +0.000 HD
ATOM     44  H   UNL     1      -6.886  -1.747  23.411  0.00  0.00    +0.000 HD
ATOM     45  H   UNL     1      -6.905  -5.144  20.803  0.00  0.00    +0.000 HD
ATOM     46  H   UNL     1      -8.745  -4.178  19.510  0.00  0.00    +0.000 HD
ENDBRANCH  33  36
ENDBRANCH  11  29
BRANCH   2  47
ATOM     47  N   UNL     1     -11.864  -5.474  15.480  0.00  0.00    +0.000 N 
ATOM     48  H   UNL     1     -12.749  -5.359  14.994  0.00  0.00    +0.000 HD
ATOM     49  H   UNL     1     -11.876  -6.206  16.185  0.00  0.00    +0.000 HD
ENDBRANCH   2  47
BRANCH   1  51
ATOM     50  N   UNL     1     -10.397  -6.166  18.720  0.00  0.00    +0.000 NA
ATOM     51  C   UNL     1     -10.493  -5.262  18.000  0.00  0.00    +0.000 C 
ENDBRANCH   1  51
TORSDOF 5
ENDMDL
MODEL 5
REMARK VINA RESULT:    -6.470      4.051      7.977
REMARK INTER + INTRA:          -9.770
REMARK INTER:                  -8.157
REMARK INTRA:                  -1.612
REMARK UNBOUND:                -1.597
REMARK  Name = 
REMARK  5 active torsions:
REMARK  status: ('A' for Active; 'I' for Inactive)
REMARK    1  A    between atoms: C_2  and  C_3
REMARK    2  A    between atoms: C_4  and  N_5
REMARK    3  A    between atoms: C_12  and  C_13
REMARK    4  A    between atoms: C_20  and  C_21
REMARK    5  A    between atoms: C_25  and  C_26
REMARK                            x       y       z     vdW  Elec       q    Type
REMARK                         _______ _______ _______ _____ _____    ______ ____
ROOT
ATOM      1  C   UNL     1      -9.897  -2.622  14.577  0.00  0.00    +0.000 C 
ATOM      2  C   UNL     1      -9.037  -3.423  13.912  0.00  0.00    +0.000 C 
ATOM      3  O   UNL     1      -8.914  -4.772  14.223  0.00  0.00    +0.000 OA
ATOM      4  C   UNL     1      -9.730  -5.348  15.178  0.00  0.00    +0.000 C 
ATOM      5  C   UNL     1     -10.563  -4.622  15.942  0.00  0.00    +0.000 C 
ATOM      6  C   UNL     1     -11.464  -5.370  16.861  0.00  0.00    +0.000 C 
ATOM      7  O   UNL     1     -12.513  -4.844  17.226  0.00  0.00    +0.000 OA
ATOM      8  C   UNL     1     -11.162  -6.813  17.211  0.00  0.00    +0.000 C 
ATOM      9  C   UNL     1      -9.736  -7.239  16.826  0.00  0.00    +0.000 C 
ATOM     10  C   UNL     1      -9.517  -6.827  15.358  0.00  0.00    +0.000 C 
ATOM     11  C   UNL     1     -10.703  -3.124  15.781  0.00  0.00    +0.000 C 
ATOM     12  H   UNL     1     -11.882  -7.423  16.649  0.00  0.00    +0.000 HD
ATOM     13  H   UNL     1     -11.366  -6.961  18.276  0.00  0.00    +0.000 HD
ATOM     14  H   UNL     1      -9.689  -8.336  16.864  0.00  0.00    +0.000 HD
ATOM     15  H   UNL     1     -10.223  -7.362  14.709  0.00  0.00    +0.000 HD
ATOM     16  H   UNL     1      -8.513  -7.119  15.028  0.00  0.00    +0.000 HD
ATOM     17  H   UNL     1     -11.753  -2.952  15.522  0.00  0.00    +0.000 HD
ENDROOT
BRANCH   9  18
ATOM     18  C   UNL     1      -8.678  -6.747  17.818  0.00  0.00    +0.000 A 
ATOM     19  C   UNL     1      -9.030  -6.558  19.165  0.00  0.00    +0.000 A 
ATOM     20  C   UNL     1      -8.101  -6.086  20.096  0.00  0.00    +0.000 A 
ATOM     21  C   UNL     1      -6.797  -5.800  19.702  0.00  0.00    +0.000 A 
ATOM     22  C   UNL     1      -6.419  -6.004  18.382  0.00  0.00    +0.000 A 
ATOM     23  C   UNL     1      -7.345  -6.485  17.455  0.00  0.00    +0.000 A 
ATOM     24  H   UNL     1     -10.041  -6.766  19.510  0.00  0.00    +0.000 HD
ATOM     25  H   UNL     1      -8.398  -5.926  21.129  0.00  0.00    +0.000 HD
ATOM     26  H   UNL     1      -6.081  -5.408  20.418  0.00  0.00    +0.000 HD
ATOM     27  H   UNL     1      -5.407  -5.767  18.064  0.00  0.00    +0.000 HD
ATOM     28  H   UNL     1      -6.984  -6.625  16.441  0.00  0.00    +0.000 HD
ENDBRANCH   9  18
BRANCH  11  29
ATOM     29  C   UNL     1     -10.329  -2.269  17.024  0.00  0.00    +0.000 C 
ATOM     30  C   UNL     1      -9.805  -3.110  18.147  0.00  0.00    +0.000 C 
ATOM     31  N   UNL     1     -10.460  -2.963  19.249  0.00  0.00    +0.000 NA
ATOM     32  N   UNL     1     -11.488  -2.006  19.033  0.00  0.00    +0.000 NA
ATOM     33  C   UNL     1     -11.417  -1.580  17.803  0.00  0.00    +0.000 C 
ATOM     34  H   UNL     1      -9.569  -1.518  16.785  0.00  0.00    +0.000 HD
ATOM     35  H   UNL     1      -8.928  -3.760  18.035  0.00  0.00    +0.000 HD
BRANCH  33  36
ATOM     36  C   UNL     1     -12.254  -0.479  17.279  0.00  0.00    +0.000 A 
ATOM     37  C   UNL     1     -12.115   0.797  17.846  0.00  0.00    +0.000 A 
ATOM     38  C   UNL     1     -12.895   1.861  17.380  0.00  0.00    +0.000 A 
ATOM     39  C   UNL     1     -13.822   1.638  16.370  0.00  0.00    +0.000 A 
ATOM     40  F   UNL     1     -14.574   2.652  15.927  0.00  0.00    +0.000 F 
ATOM     41  C   UNL     1     -13.976   0.378  15.805  0.00  0.00    +0.000 A 
ATOM     42  C   UNL     1     -13.175  -0.677  16.244  0.00  0.00    +0.000 A 
ATOM     43  H   UNL     1     -11.404   0.972  18.649  0.00  0.00    +0.000 HD
ATOM     44  H   UNL     1     -12.785   2.851  17.804  0.00  0.00    +0.000 HD
ATOM     45  H   UNL     1     -14.716   0.223  15.027  0.00  0.00    +0.000 HD
ATOM     46  H   UNL     1     -13.308  -1.638  15.765  0.00  0.00    +0.000 HD
ENDBRANCH  33  36
ENDBRANCH  11  29
BRANCH   2  47
ATOM     47  N   UNL     1      -8.202  -3.039  12.894  0.00  0.00    +0.000 N 
ATOM     48  H   UNL     1      -7.351  -3.580  12.764  0.00  0.00    +0.000 HD
ATOM     49  H   UNL     1      -8.058  -2.033  12.857  0.00  0.00    +0.000 HD
ENDBRANCH   2  47
BRANCH   1  51
ATOM     50  N   UNL     1     -10.202  -0.148  13.881  0.00  0.00    +0.000 NA
ATOM     51  C   UNL     1     -10.051  -1.256  14.189  0.00  0.00    +0.000 C 
ENDBRANCH   1  51
TORSDOF 5
ENDMDL
MODEL 6
REMARK VINA RESULT:    -6.437      8.556     10.353
REMARK INTER + INTRA:          -9.727
REMARK INTER:                  -7.995
REMARK INTRA:                  -1.732
REMARK UNBOUND:                -1.597
REMARK  Name = 
REMARK  5 active torsions:
REMARK  status: ('A' for Active; 'I' for Inactive)
REMARK    1  A    between atoms: C_2  and  C_3
REMARK    2  A    between atoms: C_4  and  N_5
REMARK    3  A    between atoms: C_12  and  C_13
REMARK    4  A    between atoms: C_20  and  C_21
REMARK    5  A    between atoms: C_25  and  C_26
REMARK                            x       y       z     vdW  Elec       q    Type
REMARK                         _______ _______ _______ _____ _____    ______ ____
ROOT
ATOM      1  C   UNL     1     -11.202   3.789  24.039  0.00  0.00    +0.000 C 
ATOM      2  C   UNL     1     -11.604   5.076  23.975  0.00  0.00    +0.000 C 
ATOM      3  O   UNL     1     -12.511   5.506  23.014  0.00  0.00    +0.000 OA
ATOM      4  C   UNL     1     -13.086   4.604  22.140  0.00  0.00    +0.000 C 
ATOM      5  C   UNL     1     -12.698   3.320  22.077  0.00  0.00    +0.000 C 
ATOM      6  C   UNL     1     -13.466   2.424  21.169  0.00  0.00    +0.000 C 
ATOM      7  O   UNL     1     -13.476   1.216  21.391  0.00  0.00    +0.000 OA
ATOM      8  C   UNL     1     -14.342   3.015  20.083  0.00  0.00    +0.000 C 
ATOM      9  C   UNL     1     -14.063   4.506  19.831  0.00  0.00    +0.000 C 
ATOM     10  C   UNL     1     -14.092   5.213  21.200  0.00  0.00    +0.000 C 
ATOM     11  C   UNL     1     -11.634   2.754  22.992  0.00  0.00    +0.000 C 
ATOM     12  H   UNL     1     -15.378   2.898  20.426  0.00  0.00    +0.000 HD
ATOM     13  H   UNL     1     -14.225   2.412  19.177  0.00  0.00    +0.000 HD
ATOM     14  H   UNL     1     -14.897   4.911  19.241  0.00  0.00    +0.000 HD
ATOM     15  H   UNL     1     -15.089   5.121  21.649  0.00  0.00    +0.000 HD
ATOM     16  H   UNL     1     -13.908   6.286  21.075  0.00  0.00    +0.000 HD
ATOM     17  H   UNL     1     -12.124   1.955  23.557  0.00  0.00    +0.000 HD
ENDROOT
BRANCH   9  18
ATOM     18  C   UNL     1     -12.807   4.745  18.987  0.00  0.00    +0.000 A 
ATOM     19  C   UNL     1     -12.428   3.788  18.030  0.00  0.00    +0.000 A 
ATOM     20  C   UNL     1     -11.276   3.956  17.257  0.00  0.00    +0.000 A 
ATOM     21  C   UNL     1     -10.482   5.087  17.421  0.00  0.00    +0.000 A 
ATOM     22  C   UNL     1     -10.851   6.058  18.341  0.00  0.00    +0.000 A 
ATOM     23  C   UNL     1     -12.008   5.895  19.105  0.00  0.00    +0.000 A 
ATOM     24  H   UNL     1     -13.021   2.889  17.877  0.00  0.00    +0.000 HD
ATOM     25  H   UNL     1     -10.987   3.195  16.538  0.00  0.00    +0.000 HD
ATOM     26  H   UNL     1      -9.572   5.206  16.840  0.00  0.00    +0.000 HD
ATOM     27  H   UNL     1     -10.227   6.936  18.485  0.00  0.00    +0.000 HD
ATOM     28  H   UNL     1     -12.241   6.691  19.804  0.00  0.00    +0.000 HD
ENDBRANCH   9  18
BRANCH  11  29
ATOM     29  C   UNL     1     -10.365   2.191  22.293  0.00  0.00    +0.000 C 
ATOM     30  C   UNL     1     -10.336   2.520  20.832  0.00  0.00    +0.000 C 
ATOM     31  N   UNL     1     -10.230   1.483  20.072  0.00  0.00    +0.000 NA
ATOM     32  N   UNL     1     -10.155   0.330  20.901  0.00  0.00    +0.000 NA
ATOM     33  C   UNL     1     -10.198   0.703  22.149  0.00  0.00    +0.000 C 
ATOM     34  H   UNL     1      -9.447   2.585  22.743  0.00  0.00    +0.000 HD
ATOM     35  H   UNL     1     -10.373   3.552  20.461  0.00  0.00    +0.000 HD
BRANCH  33  36
ATOM     36  C   UNL     1     -10.008  -0.232  23.279  0.00  0.00    +0.000 A 
ATOM     37  C   UNL     1      -9.051   0.083  24.257  0.00  0.00    +0.000 A 
ATOM     38  C   UNL     1      -8.840  -0.781  25.336  0.00  0.00    +0.000 A 
ATOM     39  C   UNL     1      -9.566  -1.962  25.419  0.00  0.00    +0.000 A 
ATOM     40  F   UNL     1      -9.361  -2.794  26.447  0.00  0.00    +0.000 F 
ATOM     41  C   UNL     1     -10.511  -2.291  24.454  0.00  0.00    +0.000 A 
ATOM     42  C   UNL     1     -10.748  -1.414  23.395  0.00  0.00    +0.000 A 
ATOM     43  H   UNL     1      -8.468   0.998  24.185  0.00  0.00    +0.000 HD
ATOM     44  H   UNL     1      -8.113  -0.539  26.101  0.00  0.00    +0.000 HD
ATOM     45  H   UNL     1     -11.057  -3.225  24.531  0.00  0.00    +0.000 HD
ATOM     46  H   UNL     1     -11.507  -1.693  22.676  0.00  0.00    +0.000 HD
ENDBRANCH  33  36
ENDBRANCH  11  29
BRANCH   2  47
ATOM     47  N   UNL     1     -11.191   6.091  24.800  0.00  0.00    +0.000 N 
ATOM     48  H   UNL     1     -10.370   5.918  25.373  0.00  0.00    +0.000 HD
ATOM     49  H   UNL     1     -11.958   6.529  25.304  0.00  0.00    +0.000 HD
ENDBRANCH   2  47
BRANCH   1  51
ATOM     50  N   UNL     1      -9.620   3.035  25.942  0.00  0.00    +0.000 NA
ATOM     51  C   UNL     1     -10.322   3.363  25.080  0.00  0.00    +0.000 C 
ENDBRANCH   1  51
TORSDOF 5
ENDMDL
MODEL 7
REMARK VINA RESULT:    -6.226      6.166      8.974
REMARK INTER + INTRA:          -9.461
REMARK INTER:                  -7.669
REMARK INTRA:                  -1.793
REMARK UNBOUND:                -1.597
REMARK  Name = 
REMARK  5 active torsions:
REMARK  status: ('A' for Active; 'I' for Inactive)
REMARK    1  A    between atoms: C_2  and  C_3
REMARK    2  A    between atoms: C_4  and  N_5
REMARK    3  A    between atoms: C_12  and  C_13
REMARK    4  A    between atoms: C_20  and  C_21
REMARK    5  A    between atoms: C_25  and  C_26
REMARK                            x       y       z     vdW  Elec       q    Type
REMARK                         _______ _______ _______ _____ _____    ______ ____
ROOT
ATOM      1  C   UNL     1      -9.673  -0.558  18.828  0.00  0.00    +0.000 C 
ATOM      2  C   UNL     1      -9.454  -0.312  17.519  0.00  0.00    +0.000 C 
ATOM      3  O   UNL     1      -9.511   0.977  17.003  0.00  0.00    +0.000 OA
ATOM      4  C   UNL     1      -9.721   2.057  17.839  0.00  0.00    +0.000 C 
ATOM      5  C   UNL     1     -10.021   1.909  19.140  0.00  0.00    +0.000 C 
ATOM      6  C   UNL     1     -10.121   3.150  19.956  0.00  0.00    +0.000 C 
ATOM      7  O   UNL     1      -9.939   3.082  21.170  0.00  0.00    +0.000 OA
ATOM      8  C   UNL     1     -10.291   4.494  19.277  0.00  0.00    +0.000 C 
ATOM      9  C   UNL     1     -10.685   4.373  17.796  0.00  0.00    +0.000 C 
ATOM     10  C   UNL     1      -9.697   3.390  17.140  0.00  0.00    +0.000 C 
ATOM     11  C   UNL     1     -10.105   0.549  19.797  0.00  0.00    +0.000 C 
ATOM     12  H   UNL     1      -9.319   5.000  19.348  0.00  0.00    +0.000 HD
ATOM     13  H   UNL     1     -11.012   5.084  19.851  0.00  0.00    +0.000 HD
ATOM     14  H   UNL     1     -10.528   5.353  17.323  0.00  0.00    +0.000 HD
ATOM     15  H   UNL     1      -8.677   3.792  17.192  0.00  0.00    +0.000 HD
ATOM     16  H   UNL     1      -9.928   3.275  16.074  0.00  0.00    +0.000 HD
ATOM     17  H   UNL     1      -9.348   0.557  20.588  0.00  0.00    +0.000 HD
ENDROOT
BRANCH   9  18
ATOM     18  C   UNL     1     -12.170   4.052  17.597  0.00  0.00    +0.000 A 
ATOM     19  C   UNL     1     -13.110   4.543  18.519  0.00  0.00    +0.000 A 
ATOM     20  C   UNL     1     -14.471   4.253  18.387  0.00  0.00    +0.000 A 
ATOM     21  C   UNL     1     -14.921   3.472  17.327  0.00  0.00    +0.000 A 
ATOM     22  C   UNL     1     -14.014   2.998  16.390  0.00  0.00    +0.000 A 
ATOM     23  C   UNL     1     -12.656   3.297  16.516  0.00  0.00    +0.000 A 
ATOM     24  H   UNL     1     -12.796   5.154  19.363  0.00  0.00    +0.000 HD
ATOM     25  H   UNL     1     -15.181   4.623  19.123  0.00  0.00    +0.000 HD
ATOM     26  H   UNL     1     -15.975   3.223  17.239  0.00  0.00    +0.000 HD
ATOM     27  H   UNL     1     -14.357   2.373  15.569  0.00  0.00    +0.000 HD
ATOM     28  H   UNL     1     -12.001   2.899  15.748  0.00  0.00    +0.000 HD
ENDBRANCH   9  18
BRANCH  11  29
ATOM     29  C   UNL     1     -11.485   0.172  20.405  0.00  0.00    +0.000 C 
ATOM     30  C   UNL     1     -12.566   1.115  19.973  0.00  0.00    +0.000 C 
ATOM     31  N   UNL     1     -13.190   1.668  20.957  0.00  0.00    +0.000 NA
ATOM     32  N   UNL     1     -12.640   1.170  22.170  0.00  0.00    +0.000 NA
ATOM     33  C   UNL     1     -11.704   0.308  21.887  0.00  0.00    +0.000 C 
ATOM     34  H   UNL     1     -11.790  -0.841  20.118  0.00  0.00    +0.000 HD
ATOM     35  H   UNL     1     -12.810   1.285  18.917  0.00  0.00    +0.000 HD
BRANCH  33  36
ATOM     36  C   UNL     1     -11.014  -0.502  22.914  0.00  0.00    +0.000 A 
ATOM     37  C   UNL     1      -9.908   0.052  23.575  0.00  0.00    +0.000 A 
ATOM     38  C   UNL     1      -9.227  -0.688  24.547  0.00  0.00    +0.000 A 
ATOM     39  C   UNL     1      -9.641  -1.983  24.835  0.00  0.00    +0.000 A 
ATOM     40  F   UNL     1      -8.988  -2.695  25.760  0.00  0.00    +0.000 F 
ATOM     41  C   UNL     1     -10.730  -2.547  24.183  0.00  0.00    +0.000 A 
ATOM     42  C   UNL     1     -11.432  -1.799  23.237  0.00  0.00    +0.000 A 
ATOM     43  H   UNL     1      -9.569   1.058  23.339  0.00  0.00    +0.000 HD
ATOM     44  H   UNL     1      -8.380  -0.262  25.070  0.00  0.00    +0.000 HD
ATOM     45  H   UNL     1     -11.028  -3.565  24.412  0.00  0.00    +0.000 HD
ATOM     46  H   UNL     1     -12.288  -2.264  22.766  0.00  0.00    +0.000 HD
ENDBRANCH  33  36
ENDBRANCH  11  29
BRANCH   2  47
ATOM     47  N   UNL     1      -9.167  -1.250  16.560  0.00  0.00    +0.000 N 
ATOM     48  H   UNL     1      -8.227  -1.636  16.557  0.00  0.00    +0.000 HD
ATOM     49  H   UNL     1      -9.507  -0.991  15.638  0.00  0.00    +0.000 HD
ENDBRANCH   2  47
BRANCH   1  51
ATOM     50  N   UNL     1      -9.408  -2.953  19.770  0.00  0.00    +0.000 NA
ATOM     51  C   UNL     1      -9.540  -1.884  19.341  0.00  0.00    +0.000 C 
ENDBRANCH   1  51
TORSDOF 5
ENDMDL
MODEL 8
REMARK VINA RESULT:    -6.197      9.875     13.056
REMARK INTER + INTRA:          -9.425
REMARK INTER:                  -7.760
REMARK INTRA:                  -1.665
REMARK UNBOUND:                -1.597
REMARK  Name = 
REMARK  5 active torsions:
REMARK  status: ('A' for Active; 'I' for Inactive)
REMARK    1  A    between atoms: C_2  and  C_3
REMARK    2  A    between atoms: C_4  and  N_5
REMARK    3  A    between atoms: C_12  and  C_13
REMARK    4  A    between atoms: C_20  and  C_21
REMARK    5  A    between atoms: C_25  and  C_26
REMARK                            x       y       z     vdW  Elec       q    Type
REMARK                         _______ _______ _______ _____ _____    ______ ____
ROOT
ATOM      1  C   UNL     1     -12.663   4.402  24.835  0.00  0.00    +0.000 C 
ATOM      2  C   UNL     1     -12.223   4.327  26.109  0.00  0.00    +0.000 C 
ATOM      3  O   UNL     1     -10.887   4.081  26.402  0.00  0.00    +0.000 OA
ATOM      4  C   UNL     1      -9.955   3.981  25.387  0.00  0.00    +0.000 C 
ATOM      5  C   UNL     1     -10.304   3.970  24.091  0.00  0.00    +0.000 C 
ATOM      6  C   UNL     1      -9.201   3.963  23.092  0.00  0.00    +0.000 C 
ATOM      7  O   UNL     1      -9.415   4.398  21.963  0.00  0.00    +0.000 OA
ATOM      8  C   UNL     1      -7.799   3.569  23.513  0.00  0.00    +0.000 C 
ATOM      9  C   UNL     1      -7.755   2.883  24.888  0.00  0.00    +0.000 C 
ATOM     10  C   UNL     1      -8.543   3.774  25.867  0.00  0.00    +0.000 C 
ATOM     11  C   UNL     1     -11.743   4.112  23.643  0.00  0.00    +0.000 C 
ATOM     12  H   UNL     1      -7.219   4.500  23.558  0.00  0.00    +0.000 HD
ATOM     13  H   UNL     1      -7.362   2.947  22.724  0.00  0.00    +0.000 HD
ATOM     14  H   UNL     1      -6.710   2.875  25.228  0.00  0.00    +0.000 HD
ATOM     15  H   UNL     1      -8.058   4.754  25.956  0.00  0.00    +0.000 HD
ATOM     16  H   UNL     1      -8.534   3.333  26.871  0.00  0.00    +0.000 HD
ATOM     17  H   UNL     1     -11.771   5.015  23.025  0.00  0.00    +0.000 HD
ENDROOT
BRANCH   9  18
ATOM     18  C   UNL     1      -8.183   1.413  24.836  0.00  0.00    +0.000 A 
ATOM     19  C   UNL     1      -8.780   0.830  25.966  0.00  0.00    +0.000 A 
ATOM     20  C   UNL     1      -9.163  -0.515  25.968  0.00  0.00    +0.000 A 
ATOM     21  C   UNL     1      -8.962  -1.302  24.839  0.00  0.00    +0.000 A 
ATOM     22  C   UNL     1      -8.398  -0.740  23.702  0.00  0.00    +0.000 A 
ATOM     23  C   UNL     1      -8.027   0.605  23.697  0.00  0.00    +0.000 A 
ATOM     24  H   UNL     1      -8.950   1.412  26.870  0.00  0.00    +0.000 HD
ATOM     25  H   UNL     1      -9.603  -0.954  26.860  0.00  0.00    +0.000 HD
ATOM     26  H   UNL     1      -9.234  -2.353  24.848  0.00  0.00    +0.000 HD
ATOM     27  H   UNL     1      -8.224  -1.353  22.822  0.00  0.00    +0.000 HD
ATOM     28  H   UNL     1      -7.594   0.983  22.776  0.00  0.00    +0.000 HD
ENDBRANCH   9  18
BRANCH  11  29
ATOM     29  C   UNL     1     -12.327   2.916  22.840  0.00  0.00    +0.000 C 
ATOM     30  C   UNL     1     -11.529   1.664  23.037  0.00  0.00    +0.000 C 
ATOM     31  N   UNL     1     -11.099   1.149  21.935  0.00  0.00    +0.000 NA
ATOM     32  N   UNL     1     -11.554   1.957  20.858  0.00  0.00    +0.000 NA
ATOM     33  C   UNL     1     -12.269   2.936  21.336  0.00  0.00    +0.000 C 
ATOM     34  H   UNL     1     -13.362   2.703  23.128  0.00  0.00    +0.000 HD
ATOM     35  H   UNL     1     -11.360   1.224  24.028  0.00  0.00    +0.000 HD
BRANCH  33  36
ATOM     36  C   UNL     1     -13.009   3.890  20.482  0.00  0.00    +0.000 A 
ATOM     37  C   UNL     1     -13.688   3.396  19.358  0.00  0.00    +0.000 A 
ATOM     38  C   UNL     1     -14.393   4.270  18.524  0.00  0.00    +0.000 A 
ATOM     39  C   UNL     1     -14.395   5.631  18.804  0.00  0.00    +0.000 A 
ATOM     40  F   UNL     1     -15.063   6.470  18.004  0.00  0.00    +0.000 F 
ATOM     41  C   UNL     1     -13.720   6.135  19.909  0.00  0.00    +0.000 A 
ATOM     42  C   UNL     1     -13.045   5.261  20.762  0.00  0.00    +0.000 A 
ATOM     43  H   UNL     1     -13.674   2.334  19.125  0.00  0.00    +0.000 HD
ATOM     44  H   UNL     1     -14.930   3.895  17.661  0.00  0.00    +0.000 HD
ATOM     45  H   UNL     1     -13.722   7.202  20.101  0.00  0.00    +0.000 HD
ATOM     46  H   UNL     1     -12.550   5.687  21.625  0.00  0.00    +0.000 HD
ENDBRANCH  33  36
ENDBRANCH  11  29
BRANCH   2  47
ATOM     47  N   UNL     1     -12.992   4.468  27.236  0.00  0.00    +0.000 N 
ATOM     48  H   UNL     1     -13.439   5.368  27.383  0.00  0.00    +0.000 HD
ATOM     49  H   UNL     1     -12.547   4.090  28.069  0.00  0.00    +0.000 HD
ENDBRANCH   2  47
BRANCH   1  51
ATOM     50  N   UNL     1     -15.140   4.991  24.373  0.00  0.00    +0.000 NA
ATOM     51  C   UNL     1     -14.028   4.725  24.565  0.00  0.00    +0.000 C 
ENDBRANCH   1  51
TORSDOF 5
ENDMDL
MODEL 9
REMARK VINA RESULT:    -6.185      4.872      7.621
REMARK INTER + INTRA:          -9.409
REMARK INTER:                  -7.872
REMARK INTRA:                  -1.537
REMARK UNBOUND:                -1.597
REMARK  Name = 
REMARK  5 active torsions:
REMARK  status: ('A' for Active; 'I' for Inactive)
REMARK    1  A    between atoms: C_2  and  C_3
REMARK    2  A    between atoms: C_4  and  N_5
REMARK    3  A    between atoms: C_12  and  C_13
REMARK    4  A    between atoms: C_20  and  C_21
REMARK    5  A    between atoms: C_25  and  C_26
REMARK                            x       y       z     vdW  Elec       q    Type
REMARK                         _______ _______ _______ _____ _____    ______ ____
ROOT
ATOM      1  C   UNL     1     -11.401  -3.254  17.356  0.00  0.00    +0.000 C 
ATOM      2  C   UNL     1     -11.582  -4.336  16.568  0.00  0.00    +0.000 C 
ATOM      3  O   UNL     1     -11.126  -4.363  15.256  0.00  0.00    +0.000 OA
ATOM      4  C   UNL     1     -10.404  -3.302  14.744  0.00  0.00    +0.000 C 
ATOM      5  C   UNL     1     -10.236  -2.155  15.422  0.00  0.00    +0.000 C 
ATOM      6  C   UNL     1      -9.351  -1.128  14.806  0.00  0.00    +0.000 C 
ATOM      7  O   UNL     1      -8.805  -0.300  15.531  0.00  0.00    +0.000 OA
ATOM      8  C   UNL     1      -9.012  -1.205  13.331  0.00  0.00    +0.000 C 
ATOM      9  C   UNL     1      -9.919  -2.175  12.556  0.00  0.00    +0.000 C 
ATOM     10  C   UNL     1      -9.930  -3.507  13.329  0.00  0.00    +0.000 C 
ATOM     11  C   UNL     1     -10.785  -1.957  16.818  0.00  0.00    +0.000 C 
ATOM     12  H   UNL     1      -7.975  -1.561  13.272  0.00  0.00    +0.000 HD
ATOM     13  H   UNL     1      -9.036  -0.193  12.916  0.00  0.00    +0.000 HD
ATOM     14  H   UNL     1      -9.449  -2.371  11.581  0.00  0.00    +0.000 HD
ATOM     15  H   UNL     1      -8.918  -3.932  13.360  0.00  0.00    +0.000 HD
ATOM     16  H   UNL     1     -10.558  -4.241  12.811  0.00  0.00    +0.000 HD
ATOM     17  H   UNL     1      -9.915  -1.762  17.452  0.00  0.00    +0.000 HD
ENDROOT
BRANCH   9  18
ATOM     18  C   UNL     1     -11.294  -1.581  12.238  0.00  0.00    +0.000 A 
ATOM     19  C   UNL     1     -11.421  -0.192  12.062  0.00  0.00    +0.000 A 
ATOM     20  C   UNL     1     -12.663   0.392  11.795  0.00  0.00    +0.000 A 
ATOM     21  C   UNL     1     -13.802  -0.400  11.692  0.00  0.00    +0.000 A 
ATOM     22  C   UNL     1     -13.696  -1.776  11.836  0.00  0.00    +0.000 A 
ATOM     23  C   UNL     1     -12.454  -2.361  12.092  0.00  0.00    +0.000 A 
ATOM     24  H   UNL     1     -10.554   0.460  12.139  0.00  0.00    +0.000 HD
ATOM     25  H   UNL     1     -12.745   1.470  11.683  0.00  0.00    +0.000 HD
ATOM     26  H   UNL     1     -14.771   0.055  11.512  0.00  0.00    +0.000 HD
ATOM     27  H   UNL     1     -14.585  -2.400  11.773  0.00  0.00    +0.000 HD
ATOM     28  H   UNL     1     -12.441  -3.441  12.191  0.00  0.00    +0.000 HD
ENDBRANCH   9  18
BRANCH  11  29
ATOM     29  C   UNL     1     -11.817  -0.806  16.985  0.00  0.00    +0.000 C 
ATOM     30  C   UNL     1     -12.057  -0.076  15.700  0.00  0.00    +0.000 C 
ATOM     31  N   UNL     1     -11.840   1.193  15.780  0.00  0.00    +0.000 NA
ATOM     32  N   UNL     1     -11.448   1.494  17.113  0.00  0.00    +0.000 NA
ATOM     33  C   UNL     1     -11.456   0.396  17.815  0.00  0.00    +0.000 C 
ATOM     34  H   UNL     1     -12.782  -1.178  17.345  0.00  0.00    +0.000 HD
ATOM     35  H   UNL     1     -12.412  -0.583  14.793  0.00  0.00    +0.000 HD
BRANCH  33  36
ATOM     36  C   UNL     1     -11.228   0.369  19.275  0.00  0.00    +0.000 A 
ATOM     37  C   UNL     1     -10.042  -0.204  19.759  0.00  0.00    +0.000 A 
ATOM     38  C   UNL     1      -9.796  -0.254  21.135  0.00  0.00    +0.000 A 
ATOM     39  C   UNL     1     -10.745   0.247  22.018  0.00  0.00    +0.000 A 
ATOM     40  F   UNL     1     -10.515   0.195  23.334  0.00  0.00    +0.000 F 
ATOM     41  C   UNL     1     -11.927   0.810  21.554  0.00  0.00    +0.000 A 
ATOM     42  C   UNL     1     -12.160   0.892  20.180  0.00  0.00    +0.000 A 
ATOM     43  H   UNL     1      -9.305  -0.614  19.072  0.00  0.00    +0.000 HD
ATOM     44  H   UNL     1      -8.877  -0.683  21.515  0.00  0.00    +0.000 HD
ATOM     45  H   UNL     1     -12.661   1.182  22.261  0.00  0.00    +0.000 HD
ATOM     46  H   UNL     1     -13.081   1.357  19.856  0.00  0.00    +0.000 HD
ENDBRANCH  33  36
ENDBRANCH  11  29
BRANCH   2  47
ATOM     47  N   UNL     1     -12.214  -5.498  16.930  0.00  0.00    +0.000 N 
ATOM     48  H   UNL     1     -11.643  -6.225  17.351  0.00  0.00    +0.000 HD
ATOM     49  H   UNL     1     -12.853  -5.841  16.216  0.00  0.00    +0.000 HD
ENDBRANCH   2  47
BRANCH   1  51
ATOM     50  N   UNL     1     -12.161  -3.278  19.829  0.00  0.00    +0.000 NA
ATOM     51  C   UNL     1     -11.820  -3.282  18.721  0.00  0.00    +0.000 C 
ENDBRANCH   1  51
TORSDOF 5
ENDMDL
