REMARK  Name = 
REMARK  6 active torsions:
REMARK  status: ('A' for Active; 'I' for Inactive)
REMARK    1  A    between atoms: C_1  and  N_2
REMARK    2  A    between atoms: N_2  and  C_3
REMARK    3  A    between atoms: N_2  and  N_4
REMARK    4  A    between atoms: N_4  and  C_5
REMARK    5  A    between atoms: N_10  and  C_11
REMARK    6  A    between atoms: C_18  and  N_19
REMARK                            x       y       z     vdW  Elec       q    Type
REMARK                         _______ _______ _______ _____ _____    ______ ____
ROOT
ATOM      1  C   UNL     1      -1.231   0.130  -1.229  0.00  0.00    +0.000 A 
ATOM      2  N   UNL     1      -0.294   0.757  -1.976  0.00  0.00    +0.000 NA
ATOM      3  C   UNL     1       0.956   0.734  -1.518  0.00  0.00    +0.000 A 
ATOM      4  N   UNL     1       1.331   0.146  -0.388  0.00  0.00    +0.000 N 
ATOM      5  C   UNL     1       0.444  -0.503   0.377  0.00  0.00    +0.000 A 
ATOM      6  N   UNL     1       0.876  -1.067   1.594  0.00  0.00    +0.000 N 
ATOM      7  C   UNL     1      -0.902  -0.569  -0.042  0.00  0.00    +0.000 A 
ATOM      8  H   UNL     1       1.720   1.254  -2.089  0.00  0.00    +0.000 HD
ATOM      9  H   UNL     1       2.303   0.179  -0.096  0.00  0.00    +0.000 HD
ATOM     10  H   UNL     1       0.563  -2.024   1.734  0.00  0.00    +0.000 HD
ENDROOT
BRANCH   6  11
ATOM     11  C   UNL     1       2.067  -0.736   2.274  0.00  0.00    +0.000 A 
ATOM     12  C   UNL     1       2.442   0.611   2.426  0.00  0.00    +0.000 A 
ATOM     13  C   UNL     1       3.699   0.955   2.911  0.00  0.00    +0.000 A 
ATOM     14  C   UNL     1       4.595  -0.046   3.273  0.00  0.00    +0.000 A 
ATOM     15 BR   UNL     1       6.333   0.416   3.844  0.00  0.00    +0.000 Br
ATOM     16  C   UNL     1       4.218  -1.387   3.189  0.00  0.00    +0.000 A 
ATOM     17  C   UNL     1       2.956  -1.732   2.691  0.00  0.00    +0.000 A 
ATOM     18  H   UNL     1       1.744   1.411   2.180  0.00  0.00    +0.000 HD
ATOM     19  H   UNL     1       3.976   2.005   3.007  0.00  0.00    +0.000 HD
ATOM     20  H   UNL     1       4.910  -2.170   3.499  0.00  0.00    +0.000 HD
ATOM     21  H   UNL     1       2.701  -2.787   2.618  0.00  0.00    +0.000 HD
ENDBRANCH   6  11
BRANCH   7  22
ATOM     22  N   UNL     1      -1.897  -1.172   0.759  0.00  0.00    +0.000 N 
ATOM     23  H   UNL     1      -1.598  -1.646   1.605  0.00  0.00    +0.000 HD
ATOM     24  H   UNL     1      -2.608  -1.700   0.259  0.00  0.00    +0.000 HD
ENDBRANCH   7  22
BRANCH   1  25
ATOM     25  N   UNL     1      -2.609   0.315  -1.539  0.00  0.00    +0.000 N 
ATOM     26  H   UNL     1      -3.177  -0.368  -1.043  0.00  0.00    +0.000 HD
BRANCH  25  27
ATOM     27  N   UNL     1      -2.981   0.538  -2.896  0.00  0.00    +0.000 NA
BRANCH  27  28
ATOM     28  C   UNL     1      -4.314  -0.043  -3.117  0.00  0.00    +0.000 C 
ATOM     29  H   UNL     1      -4.658   0.145  -4.139  0.00  0.00    +0.000 HD
ATOM     30  H   UNL     1      -5.060   0.358  -2.419  0.00  0.00    +0.000 HD
ATOM     31  H   UNL     1      -4.276  -1.131  -2.988  0.00  0.00    +0.000 HD
ENDBRANCH  27  28
BRANCH  27  32
ATOM     32  C   UNL     1      -3.048   1.989  -3.132  0.00  0.00    +0.000 C 
ATOM     33  H   UNL     1      -3.465   2.199  -4.124  0.00  0.00    +0.000 HD
ATOM     34  H   UNL     1      -2.048   2.435  -3.118  0.00  0.00    +0.000 HD
ATOM     35  H   UNL     1      -3.666   2.502  -2.385  0.00  0.00    +0.000 HD
ENDBRANCH  27  32
ENDBRANCH  25  27
ENDBRANCH   1  25
TORSDOF 6
