MODEL 1
REMARK VINA RESULT:    -9.814      0.000      0.000
REMARK INTER + INTRA:         -13.134
REMARK INTER:                 -13.257
REMARK INTRA:                   0.122
REMARK UNBOUND:                 0.122
REMARK  Name = 
REMARK  9 active torsions:
REMARK  status: ('A' for Active; 'I' for Inactive)
REMARK    1  A    between atoms: C_1  and  N_2
REMARK    2  A    between atoms: N_2  and  C_3
REMARK    3  A    between atoms: N_2  and  C_9
REMARK    4  A    between atoms: N_14  and  C_15
REMARK    5  A    between atoms: C_17  and  C_18
REMARK    6  A    between atoms: C_17  and  C_19
REMARK    7  A    between atoms: C_21  and  C_22
REMARK    8  A    between atoms: C_21  and  C_23
REMARK    9  A    between atoms: C_25  and  N_26
REMARK                            x       y       z     vdW  Elec       q    Type
REMARK                         _______ _______ _______ _____ _____    ______ ____
ROOT
ATOM      1  C   UNL     1      -8.573  -4.293  19.925  0.00  0.00    +0.000 C 
ATOM      2  C   UNL     1      -9.027  -2.923  19.400  0.00  0.00    +0.000 C 
ATOM      3  C   UNL     1      -9.160  -1.861  20.484  0.00  0.00    +0.000 C 
ATOM      4  N   UNL     1      -7.907  -1.850  21.329  0.00  0.00    +0.000 N 
ATOM      5  C   UNL     1      -7.298  -3.154  21.812  0.00  0.00    +0.000 C 
ATOM      6  C   UNL     1      -7.232  -4.148  20.648  0.00  0.00    +0.000 C 
ATOM      7  H   UNL     1      -9.345  -4.696  20.591  0.00  0.00    +0.000 HD
ATOM      8  H   UNL     1      -9.984  -3.031  18.872  0.00  0.00    +0.000 HD
ATOM      9  H   UNL     1      -8.311  -2.585  18.636  0.00  0.00    +0.000 HD
ATOM     10  H   UNL     1      -8.046  -1.224  22.135  0.00  0.00    +0.000 HD
ATOM     11  H   UNL     1      -7.178  -1.382  20.768  0.00  0.00    +0.000 HD
ATOM     12  H   UNL     1      -6.886  -5.117  21.026  0.00  0.00    +0.000 HD
ATOM     13  H   UNL     1      -6.467  -3.827  19.926  0.00  0.00    +0.000 HD
ENDROOT
BRANCH   1  19
ATOM     14  C   UNL     1      -9.373  -8.603  17.937  0.00  0.00    +0.000 A 
ATOM     15  N   UNL     1      -9.212  -9.139  19.170  0.00  0.00    +0.000 NA
ATOM     16  C   UNL     1      -8.773  -8.385  20.187  0.00  0.00    +0.000 A 
ATOM     17  N   UNL     1      -8.485  -7.086  20.141  0.00  0.00    +0.000 NA
ATOM     18  C   UNL     1      -8.662  -6.536  18.940  0.00  0.00    +0.000 A 
ATOM     19  N   UNL     1      -8.439  -5.135  18.743  0.00  0.00    +0.000 N 
ATOM     20  C   UNL     1      -9.074  -7.237  17.765  0.00  0.00    +0.000 A 
ATOM     21  H   UNL     1      -8.647  -8.890  21.139  0.00  0.00    +0.000 HD
ATOM     22  H   UNL     1      -9.174  -4.912  18.060  0.00  0.00    +0.000 HD
BRANCH  20  23
ATOM     23  N   UNL     1      -9.334  -6.392  16.647  0.00  0.00    +0.000 N 
ATOM     24  H   UNL     1      -8.442  -6.147  16.210  0.00  0.00    +0.000 HD
ATOM     25  H   UNL     1      -9.970  -6.719  15.946  0.00  0.00    +0.000 HD
ENDBRANCH  20  23
BRANCH  14  26
ATOM     26  N   UNL     1      -9.831  -9.475  16.917  0.00  0.00    +0.000 N 
BRANCH  26  27
ATOM     27  C   UNL     1      -9.259 -10.736  16.562  0.00  0.00    +0.000 A 
ATOM     28  C   UNL     1      -8.980 -11.725  17.519  0.00  0.00    +0.000 A 
ATOM     29  C   UNL     1      -8.460 -12.973  17.156  0.00  0.00    +0.000 A 
ATOM     30  C   UNL     1      -8.181 -13.254  15.824  0.00  0.00    +0.000 A 
ATOM     31  C   UNL     1      -8.416 -12.284  14.856  0.00  0.00    +0.000 A 
ATOM     32  C   UNL     1      -8.954 -11.048  15.222  0.00  0.00    +0.000 A 
ATOM     33  H   UNL     1      -9.152 -11.535  18.575  0.00  0.00    +0.000 HD
ATOM     34  H   UNL     1      -8.274 -13.723  17.921  0.00  0.00    +0.000 HD
ATOM     35  H   UNL     1      -7.786 -14.225  15.539  0.00  0.00    +0.000 HD
ATOM     36  H   UNL     1      -8.193 -12.490  13.813  0.00  0.00    +0.000 HD
ATOM     37  H   UNL     1      -9.155 -10.335  14.427  0.00  0.00    +0.000 HD
ENDBRANCH  26  27
BRANCH  26  38
ATOM     38  C   UNL     1     -10.991  -9.132  16.104  0.00  0.00    +0.000 C 
ATOM     39  H   UNL     1     -10.802  -9.128  15.024  0.00  0.00    +0.000 HD
ATOM     40  H   UNL     1     -11.317  -8.105  16.302  0.00  0.00    +0.000 HD
ATOM     41  H   UNL     1     -11.801  -9.850  16.279  0.00  0.00    +0.000 HD
ENDBRANCH  26  38
ENDBRANCH  14  26
ENDBRANCH   1  19
BRANCH   3  42
ATOM     42  C   UNL     1      -9.260  -0.473  19.822  0.00  0.00    +0.000 C 
ATOM     43  H   UNL     1     -10.301  -0.232  19.575  0.00  0.00    +0.000 HD
ATOM     44  H   UNL     1      -8.685  -0.427  18.891  0.00  0.00    +0.000 HD
ATOM     45  H   UNL     1      -8.885   0.313  20.486  0.00  0.00    +0.000 HD
ENDBRANCH   3  42
BRANCH   3  46
ATOM     46  C   UNL     1     -10.405  -2.060  21.354  0.00  0.00    +0.000 C 
ATOM     47  H   UNL     1     -10.179  -2.730  22.194  0.00  0.00    +0.000 HD
ATOM     48  H   UNL     1     -11.224  -2.510  20.787  0.00  0.00    +0.000 HD
ATOM     49  H   UNL     1     -10.768  -1.136  21.804  0.00  0.00    +0.000 HD
ENDBRANCH   3  46
BRANCH   5  50
ATOM     50  C   UNL     1      -5.872  -2.811  22.282  0.00  0.00    +0.000 C 
ATOM     51  H   UNL     1      -5.764  -2.959  23.364  0.00  0.00    +0.000 HD
ATOM     52  H   UNL     1      -5.613  -1.769  22.063  0.00  0.00    +0.000 HD
ATOM     53  H   UNL     1      -5.131  -3.446  21.783  0.00  0.00    +0.000 HD
ENDBRANCH   5  50
BRANCH   5  54
ATOM     54  C   UNL     1      -8.079  -3.690  23.017  0.00  0.00    +0.000 C 
ATOM     55  H   UNL     1      -9.076  -4.039  22.726  0.00  0.00    +0.000 HD
ATOM     56  H   UNL     1      -8.213  -2.904  23.770  0.00  0.00    +0.000 HD
ATOM     57  H   UNL     1      -7.572  -4.508  23.529  0.00  0.00    +0.000 HD
ENDBRANCH   5  54
TORSDOF 9
ENDMDL
MODEL 2
REMARK VINA RESULT:    -9.120      1.987      2.533
REMARK INTER + INTRA:         -12.197
REMARK INTER:                 -11.618
REMARK INTRA:                  -0.578
REMARK UNBOUND:                 0.122
REMARK  Name = 
REMARK  9 active torsions:
REMARK  status: ('A' for Active; 'I' for Inactive)
REMARK    1  A    between atoms: C_1  and  N_2
REMARK    2  A    between atoms: N_2  and  C_3
REMARK    3  A    between atoms: N_2  and  C_9
REMARK    4  A    between atoms: N_14  and  C_15
REMARK    5  A    between atoms: C_17  and  C_18
REMARK    6  A    between atoms: C_17  and  C_19
REMARK    7  A    between atoms: C_21  and  C_22
REMARK    8  A    between atoms: C_21  and  C_23
REMARK    9  A    between atoms: C_25  and  N_26
REMARK                            x       y       z     vdW  Elec       q    Type
REMARK                         _______ _______ _______ _____ _____    ______ ____
ROOT
ATOM      1  C   UNL     1      -9.768  -3.604  18.648  0.00  0.00    +0.000 C 
ATOM      2  C   UNL     1      -9.576  -2.668  17.445  0.00  0.00    +0.000 C 
ATOM      3  C   UNL     1     -10.272  -1.321  17.594  0.00  0.00    +0.000 C 
ATOM      4  N   UNL     1      -9.927  -0.727  18.940  0.00  0.00    +0.000 N 
ATOM      5  C   UNL     1      -9.969  -1.587  20.191  0.00  0.00    +0.000 C 
ATOM      6  C   UNL     1      -9.260  -2.918  19.919  0.00  0.00    +0.000 C 
ATOM      7  H   UNL     1     -10.829  -3.867  18.732  0.00  0.00    +0.000 HD
ATOM      8  H   UNL     1      -9.931  -3.166  16.532  0.00  0.00    +0.000 HD
ATOM      9  H   UNL     1      -8.497  -2.513  17.290  0.00  0.00    +0.000 HD
ATOM     10  H   UNL     1     -10.494   0.119  19.094  0.00  0.00    +0.000 HD
ATOM     11  H   UNL     1      -8.960  -0.374  18.867  0.00  0.00    +0.000 HD
ATOM     12  H   UNL     1      -9.382  -3.572  20.790  0.00  0.00    +0.000 HD
ATOM     13  H   UNL     1      -8.177  -2.751  19.829  0.00  0.00    +0.000 HD
ENDROOT
BRANCH   1  19
ATOM     14  C   UNL     1      -9.709  -8.031  16.763  0.00  0.00    +0.000 A 
ATOM     15  N   UNL     1     -10.994  -8.161  17.171  0.00  0.00    +0.000 NA
ATOM     16  C   UNL     1     -11.552  -7.237  17.964  0.00  0.00    +0.000 A 
ATOM     17  N   UNL     1     -10.974  -6.121  18.405  0.00  0.00    +0.000 NA
ATOM     18  C   UNL     1      -9.717  -5.965  17.992  0.00  0.00    +0.000 A 
ATOM     19  N   UNL     1      -8.978  -4.790  18.346  0.00  0.00    +0.000 N 
ATOM     20  C   UNL     1      -8.991  -6.898  17.189  0.00  0.00    +0.000 A 
ATOM     21  H   UNL     1     -12.578  -7.422  18.269  0.00  0.00    +0.000 HD
ATOM     22  H   UNL     1      -8.423  -4.642  17.493  0.00  0.00    +0.000 HD
BRANCH  20  23
ATOM     23  N   UNL     1      -7.717  -6.424  16.760  0.00  0.00    +0.000 N 
ATOM     24  H   UNL     1      -7.134  -6.266  17.586  0.00  0.00    +0.000 HD
ATOM     25  H   UNL     1      -7.209  -6.974  16.095  0.00  0.00    +0.000 HD
ENDBRANCH  20  23
BRANCH  14  26
ATOM     26  N   UNL     1      -9.196  -9.062  15.934  0.00  0.00    +0.000 N 
BRANCH  26  27
ATOM     27  C   UNL     1      -8.915 -10.405  16.331  0.00  0.00    +0.000 A 
ATOM     28  C   UNL     1      -8.816 -10.780  17.681  0.00  0.00    +0.000 A 
ATOM     29  C   UNL     1      -8.583 -12.108  18.059  0.00  0.00    +0.000 A 
ATOM     30  C   UNL     1      -8.418 -13.092  17.092  0.00  0.00    +0.000 A 
ATOM     31  C   UNL     1      -8.477 -12.748  15.747  0.00  0.00    +0.000 A 
ATOM     32  C   UNL     1      -8.731 -11.425  15.376  0.00  0.00    +0.000 A 
ATOM     33  H   UNL     1      -8.907 -10.036  18.468  0.00  0.00    +0.000 HD
ATOM     34  H   UNL     1      -8.532 -12.366  19.114  0.00  0.00    +0.000 HD
ATOM     35  H   UNL     1      -8.246 -14.124  17.385  0.00  0.00    +0.000 HD
ATOM     36  H   UNL     1      -8.340 -13.508  14.983  0.00  0.00    +0.000 HD
ATOM     37  H   UNL     1      -8.806 -11.210  14.313  0.00  0.00    +0.000 HD
ENDBRANCH  26  27
BRANCH  26  38
ATOM     38  C   UNL     1      -8.900  -8.813  14.529  0.00  0.00    +0.000 C 
ATOM     39  H   UNL     1      -9.785  -8.739  13.885  0.00  0.00    +0.000 HD
ATOM     40  H   UNL     1      -8.346  -9.652  14.092  0.00  0.00    +0.000 HD
ATOM     41  H   UNL     1      -8.352  -7.870  14.419  0.00  0.00    +0.000 HD
ENDBRANCH  26  38
ENDBRANCH  14  26
ENDBRANCH   1  19
BRANCH   3  42
ATOM     42  C   UNL     1      -9.728  -0.350  16.529  0.00  0.00    +0.000 C 
ATOM     43  H   UNL     1      -9.883  -0.750  15.520  0.00  0.00    +0.000 HD
ATOM     44  H   UNL     1      -8.652  -0.180  16.649  0.00  0.00    +0.000 HD
ATOM     45  H   UNL     1     -10.228   0.622  16.583  0.00  0.00    +0.000 HD
ENDBRANCH   3  42
BRANCH   3  46
ATOM     46  C   UNL     1     -11.790  -1.419  17.413  0.00  0.00    +0.000 C 
ATOM     47  H   UNL     1     -12.029  -1.926  16.469  0.00  0.00    +0.000 HD
ATOM     48  H   UNL     1     -12.255  -0.429  17.381  0.00  0.00    +0.000 HD
ATOM     49  H   UNL     1     -12.280  -2.001  18.193  0.00  0.00    +0.000 HD
ENDBRANCH   3  46
BRANCH   5  50
ATOM     50  C   UNL     1      -9.205  -0.804  21.274  0.00  0.00    +0.000 C 
ATOM     51  H   UNL     1      -9.895  -0.303  21.964  0.00  0.00    +0.000 HD
ATOM     52  H   UNL     1      -8.557  -0.037  20.837  0.00  0.00    +0.000 HD
ATOM     53  H   UNL     1      -8.569  -1.473  21.866  0.00  0.00    +0.000 HD
ENDBRANCH   5  50
BRANCH   5  54
ATOM     54  C   UNL     1     -11.416  -1.763  20.665  0.00  0.00    +0.000 C 
ATOM     55  H   UNL     1     -11.963  -0.814  20.643  0.00  0.00    +0.000 HD
ATOM     56  H   UNL     1     -11.441  -2.132  21.697  0.00  0.00    +0.000 HD
ATOM     57  H   UNL     1     -11.977  -2.489  20.076  0.00  0.00    +0.000 HD
ENDBRANCH   5  54
TORSDOF 9
ENDMDL
MODEL 3
REMARK VINA RESULT:    -8.988      2.730      4.248
REMARK INTER + INTRA:         -12.018
REMARK INTER:                 -12.029
REMARK INTRA:                   0.010
REMARK UNBOUND:                 0.122
REMARK  Name = 
REMARK  9 active torsions:
REMARK  status: ('A' for Active; 'I' for Inactive)
REMARK    1  A    between atoms: C_1  and  N_2
REMARK    2  A    between atoms: N_2  and  C_3
REMARK    3  A    between atoms: N_2  and  C_9
REMARK    4  A    between atoms: N_14  and  C_15
REMARK    5  A    between atoms: C_17  and  C_18
REMARK    6  A    between atoms: C_17  and  C_19
REMARK    7  A    between atoms: C_21  and  C_22
REMARK    8  A    between atoms: C_21  and  C_23
REMARK    9  A    between atoms: C_25  and  N_26
REMARK                            x       y       z     vdW  Elec       q    Type
REMARK                         _______ _______ _______ _____ _____    ______ ____
ROOT
ATOM      1  C   UNL     1     -11.097  -3.547  17.423  0.00  0.00    +0.000 C 
ATOM      2  C   UNL     1     -11.016  -2.827  18.777  0.00  0.00    +0.000 C 
ATOM      3  C   UNL     1     -10.840  -1.318  18.664  0.00  0.00    +0.000 C 
ATOM      4  N   UNL     1     -11.862  -0.767  17.696  0.00  0.00    +0.000 N 
ATOM      5  C   UNL     1     -12.113  -1.463  16.370  0.00  0.00    +0.000 C 
ATOM      6  C   UNL     1     -12.253  -2.970  16.603  0.00  0.00    +0.000 C 
ATOM      7  H   UNL     1     -10.140  -3.435  16.899  0.00  0.00    +0.000 HD
ATOM      8  H   UNL     1     -10.191  -3.249  19.369  0.00  0.00    +0.000 HD
ATOM      9  H   UNL     1     -11.928  -3.052  19.350  0.00  0.00    +0.000 HD
ATOM     10  H   UNL     1     -11.664   0.228  17.523  0.00  0.00    +0.000 HD
ATOM     11  H   UNL     1     -12.766  -0.763  18.194  0.00  0.00    +0.000 HD
ATOM     12  H   UNL     1     -12.333  -3.476  15.633  0.00  0.00    +0.000 HD
ATOM     13  H   UNL     1     -13.201  -3.181  17.121  0.00  0.00    +0.000 HD
ENDROOT
BRANCH   1  19
ATOM     14  C   UNL     1      -9.344  -8.029  17.429  0.00  0.00    +0.000 A 
ATOM     15  N   UNL     1      -8.650  -7.699  16.314  0.00  0.00    +0.000 NA
ATOM     16  C   UNL     1      -8.877  -6.535  15.692  0.00  0.00    +0.000 A 
ATOM     17  N   UNL     1      -9.734  -5.589  16.072  0.00  0.00    +0.000 NA
ATOM     18  C   UNL     1     -10.408  -5.887  17.182  0.00  0.00    +0.000 A 
ATOM     19  N   UNL     1     -11.333  -4.949  17.743  0.00  0.00    +0.000 N 
ATOM     20  C   UNL     1     -10.297  -7.112  17.911  0.00  0.00    +0.000 A 
ATOM     21  H   UNL     1      -8.299  -6.351  14.791  0.00  0.00    +0.000 HD
ATOM     22  H   UNL     1     -11.197  -5.113  18.749  0.00  0.00    +0.000 HD
BRANCH  20  23
ATOM     23  N   UNL     1     -11.012  -7.119  19.144  0.00  0.00    +0.000 N 
ATOM     24  H   UNL     1     -10.936  -6.191  19.569  0.00  0.00    +0.000 HD
ATOM     25  H   UNL     1     -11.973  -7.400  19.130  0.00  0.00    +0.000 HD
ENDBRANCH  20  23
BRANCH  14  26
ATOM     26  N   UNL     1      -9.047  -9.285  18.017  0.00  0.00    +0.000 N 
BRANCH  26  27
ATOM     27  C   UNL     1      -8.925 -10.533  17.331  0.00  0.00    +0.000 A 
ATOM     28  C   UNL     1      -9.143 -10.649  15.949  0.00  0.00    +0.000 A 
ATOM     29  C   UNL     1      -8.980 -11.868  15.279  0.00  0.00    +0.000 A 
ATOM     30  C   UNL     1      -8.618 -13.010  15.984  0.00  0.00    +0.000 A 
ATOM     31  C   UNL     1      -8.426 -12.935  17.358  0.00  0.00    +0.000 A 
ATOM     32  C   UNL     1      -8.571 -11.712  18.018  0.00  0.00    +0.000 A 
ATOM     33  H   UNL     1      -9.459  -9.788  15.366  0.00  0.00    +0.000 HD
ATOM     34  H   UNL     1      -9.137 -11.918  14.205  0.00  0.00    +0.000 HD
ATOM     35  H   UNL     1      -8.481 -13.954  15.464  0.00  0.00    +0.000 HD
ATOM     36  H   UNL     1      -8.152 -13.824  17.920  0.00  0.00    +0.000 HD
ATOM     37  H   UNL     1      -8.375 -11.694  19.087  0.00  0.00    +0.000 HD
ENDBRANCH  26  27
BRANCH  26  38
ATOM     38  C   UNL     1      -8.828  -9.406  19.453  0.00  0.00    +0.000 C 
ATOM     39  H   UNL     1      -9.491  -8.784  20.066  0.00  0.00    +0.000 HD
ATOM     40  H   UNL     1      -7.830  -9.048  19.728  0.00  0.00    +0.000 HD
ATOM     41  H   UNL     1      -8.984 -10.442  19.774  0.00  0.00    +0.000 HD
ENDBRANCH  26  38
ENDBRANCH  14  26
ENDBRANCH   1  19
BRANCH   3  42
ATOM     42  C   UNL     1     -11.131  -0.670  20.031  0.00  0.00    +0.000 C 
ATOM     43  H   UNL     1     -10.201  -0.366  20.525  0.00  0.00    +0.000 HD
ATOM     44  H   UNL     1     -11.645  -1.365  20.706  0.00  0.00    +0.000 HD
ATOM     45  H   UNL     1     -11.760   0.219  19.925  0.00  0.00    +0.000 HD
ENDBRANCH   3  42
BRANCH   3  46
ATOM     46  C   UNL     1      -9.421  -0.919  18.245  0.00  0.00    +0.000 C 
ATOM     47  H   UNL     1      -9.165   0.065  18.658  0.00  0.00    +0.000 HD
ATOM     48  H   UNL     1      -9.327  -0.853  17.157  0.00  0.00    +0.000 HD
ATOM     49  H   UNL     1      -8.656  -1.603  18.613  0.00  0.00    +0.000 HD
ENDBRANCH   3  46
BRANCH   5  50
ATOM     50  C   UNL     1     -13.441  -0.895  15.835  0.00  0.00    +0.000 C 
ATOM     51  H   UNL     1     -13.600   0.134  16.179  0.00  0.00    +0.000 HD
ATOM     52  H   UNL     1     -14.298  -1.492  16.164  0.00  0.00    +0.000 HD
ATOM     53  H   UNL     1     -13.449  -0.885  14.738  0.00  0.00    +0.000 HD
ENDBRANCH   5  50
BRANCH   5  54
ATOM     54  C   UNL     1     -11.008  -1.109  15.368  0.00  0.00    +0.000 C 
ATOM     55  H   UNL     1     -10.230  -1.880  15.341  0.00  0.00    +0.000 HD
ATOM     56  H   UNL     1     -10.525  -0.165  15.645  0.00  0.00    +0.000 HD
ATOM     57  H   UNL     1     -11.378  -0.968  14.352  0.00  0.00    +0.000 HD
ENDBRANCH   5  54
TORSDOF 9
ENDMDL
MODEL 4
REMARK VINA RESULT:    -8.825      2.005      3.583
REMARK INTER + INTRA:         -11.799
REMARK INTER:                 -11.202
REMARK INTRA:                  -0.597
REMARK UNBOUND:                 0.122
REMARK  Name = 
REMARK  9 active torsions:
REMARK  status: ('A' for Active; 'I' for Inactive)
REMARK    1  A    between atoms: C_1  and  N_2
REMARK    2  A    between atoms: N_2  and  C_3
REMARK    3  A    between atoms: N_2  and  C_9
REMARK    4  A    between atoms: N_14  and  C_15
REMARK    5  A    between atoms: C_17  and  C_18
REMARK    6  A    between atoms: C_17  and  C_19
REMARK    7  A    between atoms: C_21  and  C_22
REMARK    8  A    between atoms: C_21  and  C_23
REMARK    9  A    between atoms: C_25  and  N_26
REMARK                            x       y       z     vdW  Elec       q    Type
REMARK                         _______ _______ _______ _____ _____    ______ ____
ROOT
ATOM      1  C   UNL     1     -10.136  -2.686  19.022  0.00  0.00    +0.000 C 
ATOM      2  C   UNL     1     -11.001  -2.563  20.285  0.00  0.00    +0.000 C 
ATOM      3  C   UNL     1     -11.014  -1.165  20.890  0.00  0.00    +0.000 C 
ATOM      4  N   UNL     1     -11.303  -0.153  19.805  0.00  0.00    +0.000 N 
ATOM      5  C   UNL     1     -10.591  -0.242  18.467  0.00  0.00    +0.000 C 
ATOM      6  C   UNL     1     -10.623  -1.690  17.967  0.00  0.00    +0.000 C 
ATOM      7  H   UNL     1      -9.087  -2.507  19.287  0.00  0.00    +0.000 HD
ATOM      8  H   UNL     1     -10.657  -3.286  21.038  0.00  0.00    +0.000 HD
ATOM      9  H   UNL     1     -12.029  -2.869  20.038  0.00  0.00    +0.000 HD
ATOM     10  H   UNL     1     -11.187   0.797  20.186  0.00  0.00    +0.000 HD
ATOM     11  H   UNL     1     -12.311  -0.223  19.599  0.00  0.00    +0.000 HD
ATOM     12  H   UNL     1     -10.022  -1.765  17.053  0.00  0.00    +0.000 HD
ATOM     13  H   UNL     1     -11.646  -1.957  17.666  0.00  0.00    +0.000 HD
ENDROOT
BRANCH   1  19
ATOM     14  C   UNL     1      -8.625  -7.247  19.291  0.00  0.00    +0.000 A 
ATOM     15  N   UNL     1      -7.380  -6.763  19.509  0.00  0.00    +0.000 NA
ATOM     16  C   UNL     1      -7.126  -5.455  19.374  0.00  0.00    +0.000 A 
ATOM     17  N   UNL     1      -8.006  -4.507  19.058  0.00  0.00    +0.000 NA
ATOM     18  C   UNL     1      -9.243  -4.963  18.864  0.00  0.00    +0.000 A 
ATOM     19  N   UNL     1     -10.312  -4.058  18.564  0.00  0.00    +0.000 N 
ATOM     20  C   UNL     1      -9.635  -6.336  18.927  0.00  0.00    +0.000 A 
ATOM     21  H   UNL     1      -6.099  -5.145  19.543  0.00  0.00    +0.000 HD
ATOM     22  H   UNL     1     -11.094  -4.503  19.061  0.00  0.00    +0.000 HD
BRANCH  20  23
ATOM     23  N   UNL     1     -11.042  -6.541  18.830  0.00  0.00    +0.000 N 
ATOM     24  H   UNL     1     -11.508  -5.631  18.879  0.00  0.00    +0.000 HD
ATOM     25  H   UNL     1     -11.392  -7.052  18.042  0.00  0.00    +0.000 HD
ENDBRANCH  20  23
BRANCH  14  26
ATOM     26  N   UNL     1      -8.803  -8.646  19.447  0.00  0.00    +0.000 N 
BRANCH  26  27
ATOM     27  C   UNL     1      -8.927  -9.605  18.395  0.00  0.00    +0.000 A 
ATOM     28  C   UNL     1      -9.409  -9.260  17.122  0.00  0.00    +0.000 A 
ATOM     29  C   UNL     1      -9.486 -10.198  16.086  0.00  0.00    +0.000 A 
ATOM     30  C   UNL     1      -9.106 -11.517  16.307  0.00  0.00    +0.000 A 
ATOM     31  C   UNL     1      -8.656 -11.898  17.565  0.00  0.00    +0.000 A 
ATOM     32  C   UNL     1      -8.561 -10.953  18.589  0.00  0.00    +0.000 A 
ATOM     33  H   UNL     1      -9.747  -8.248  16.916  0.00  0.00    +0.000 HD
ATOM     34  H   UNL     1      -9.846  -9.892  15.107  0.00  0.00    +0.000 HD
ATOM     35  H   UNL     1      -9.157 -12.244  15.501  0.00  0.00    +0.000 HD
ATOM     36  H   UNL     1      -8.365 -12.928  17.750  0.00  0.00    +0.000 HD
ATOM     37  H   UNL     1      -8.168 -11.289  19.545  0.00  0.00    +0.000 HD
ENDBRANCH  26  27
BRANCH  26  38
ATOM     38  C   UNL     1      -8.874  -9.247  20.772  0.00  0.00    +0.000 C 
ATOM     39  H   UNL     1      -7.916  -9.625  21.151  0.00  0.00    +0.000 HD
ATOM     40  H   UNL     1      -9.506 -10.142  20.762  0.00  0.00    +0.000 HD
ATOM     41  H   UNL     1      -9.232  -8.512  21.502  0.00  0.00    +0.000 HD
ENDBRANCH  26  38
ENDBRANCH  14  26
ENDBRANCH   1  19
BRANCH   3  42
ATOM     42  C   UNL     1     -12.167  -1.065  21.907  0.00  0.00    +0.000 C 
ATOM     43  H   UNL     1     -11.860  -0.493  22.791  0.00  0.00    +0.000 HD
ATOM     44  H   UNL     1     -12.487  -2.053  22.255  0.00  0.00    +0.000 HD
ATOM     45  H   UNL     1     -13.039  -0.565  21.473  0.00  0.00    +0.000 HD
ENDBRANCH   3  42
BRANCH   3  46
ATOM     46  C   UNL     1      -9.710  -0.826  21.620  0.00  0.00    +0.000 C 
ATOM     47  H   UNL     1      -9.780   0.167  22.083  0.00  0.00    +0.000 HD
ATOM     48  H   UNL     1      -8.859  -0.810  20.934  0.00  0.00    +0.000 HD
ATOM     49  H   UNL     1      -9.481  -1.515  22.433  0.00  0.00    +0.000 HD
ENDBRANCH   3  46
BRANCH   5  50
ATOM     50  C   UNL     1     -11.383   0.658  17.501  0.00  0.00    +0.000 C 
ATOM     51  H   UNL     1     -11.714   1.579  17.997  0.00  0.00    +0.000 HD
ATOM     52  H   UNL     1     -12.273   0.151  17.114  0.00  0.00    +0.000 HD
ATOM     53  H   UNL     1     -10.768   0.947  16.640  0.00  0.00    +0.000 HD
ENDBRANCH   5  50
BRANCH   5  54
ATOM     54  C   UNL     1      -9.170   0.322  18.584  0.00  0.00    +0.000 C 
ATOM     55  H   UNL     1      -9.152   1.244  19.176  0.00  0.00    +0.000 HD
ATOM     56  H   UNL     1      -8.769   0.562  17.592  0.00  0.00    +0.000 HD
ATOM     57  H   UNL     1      -8.464  -0.378  19.029  0.00  0.00    +0.000 HD
ENDBRANCH   5  54
TORSDOF 9
ENDMDL
MODEL 5
REMARK VINA RESULT:    -8.809      3.959      5.644
REMARK INTER + INTRA:         -11.777
REMARK INTER:                 -11.361
REMARK INTRA:                  -0.416
REMARK UNBOUND:                 0.122
REMARK  Name = 
REMARK  9 active torsions:
REMARK  status: ('A' for Active; 'I' for Inactive)
REMARK    1  A    between atoms: C_1  and  N_2
REMARK    2  A    between atoms: N_2  and  C_3
REMARK    3  A    between atoms: N_2  and  C_9
REMARK    4  A    between atoms: N_14  and  C_15
REMARK    5  A    between atoms: C_17  and  C_18
REMARK    6  A    between atoms: C_17  and  C_19
REMARK    7  A    between atoms: C_21  and  C_22
REMARK    8  A    between atoms: C_21  and  C_23
REMARK    9  A    between atoms: C_25  and  N_26
REMARK                            x       y       z     vdW  Elec       q    Type
REMARK                         _______ _______ _______ _____ _____    ______ ____
ROOT
ATOM      1  C   UNL     1     -11.431  -3.982  15.089  0.00  0.00    +0.000 C 
ATOM      2  C   UNL     1     -12.244  -3.008  15.953  0.00  0.00    +0.000 C 
ATOM      3  C   UNL     1     -12.201  -1.565  15.464  0.00  0.00    +0.000 C 
ATOM      4  N   UNL     1     -12.507  -1.530  13.985  0.00  0.00    +0.000 N 
ATOM      5  C   UNL     1     -11.849  -2.523  13.043  0.00  0.00    +0.000 C 
ATOM      6  C   UNL     1     -11.934  -3.930  13.644  0.00  0.00    +0.000 C 
ATOM      7  H   UNL     1     -10.368  -3.717  15.151  0.00  0.00    +0.000 HD
ATOM      8  H   UNL     1     -11.888  -3.054  16.992  0.00  0.00    +0.000 HD
ATOM      9  H   UNL     1     -13.287  -3.356  15.989  0.00  0.00    +0.000 HD
ATOM     10  H   UNL     1     -12.355  -0.576  13.628  0.00  0.00    +0.000 HD
ATOM     11  H   UNL     1     -13.524  -1.677  13.891  0.00  0.00    +0.000 HD
ATOM     12  H   UNL     1     -11.371  -4.624  13.009  0.00  0.00    +0.000 HD
ATOM     13  H   UNL     1     -12.974  -4.286  13.613  0.00  0.00    +0.000 HD
ENDROOT
BRANCH   1  19
ATOM     14  C   UNL     1      -9.464  -7.889  17.095  0.00  0.00    +0.000 A 
ATOM     15  N   UNL     1      -8.377  -7.673  16.317  0.00  0.00    +0.000 NA
ATOM     16  C   UNL     1      -8.406  -6.746  15.351  0.00  0.00    +0.000 A 
ATOM     17  N   UNL     1      -9.425  -5.939  15.059  0.00  0.00    +0.000 NA
ATOM     18  C   UNL     1     -10.496  -6.122  15.832  0.00  0.00    +0.000 A 
ATOM     19  N   UNL     1     -11.656  -5.298  15.672  0.00  0.00    +0.000 N 
ATOM     20  C   UNL     1     -10.612  -7.108  16.860  0.00  0.00    +0.000 A 
ATOM     21  H   UNL     1      -7.505  -6.645  14.754  0.00  0.00    +0.000 HD
ATOM     22  H   UNL     1     -11.971  -5.207  16.646  0.00  0.00    +0.000 HD
BRANCH  20  23
ATOM     23  N   UNL     1     -11.800  -6.995  17.639  0.00  0.00    +0.000 N 
ATOM     24  H   UNL     1     -11.827  -6.062  18.058  0.00  0.00    +0.000 HD
ATOM     25  H   UNL     1     -12.677  -7.184  17.192  0.00  0.00    +0.000 HD
ENDBRANCH  20  23
BRANCH  14  26
ATOM     26  N   UNL     1      -9.348  -8.897  18.086  0.00  0.00    +0.000 N 
BRANCH  26  27
ATOM     27  C   UNL     1      -9.074 -10.281  17.858  0.00  0.00    +0.000 A 
ATOM     28  C   UNL     1      -9.379 -10.912  16.641  0.00  0.00    +0.000 A 
ATOM     29  C   UNL     1      -9.066 -12.257  16.412  0.00  0.00    +0.000 A 
ATOM     30  C   UNL     1      -8.461 -13.014  17.409  0.00  0.00    +0.000 A 
ATOM     31  C   UNL     1      -8.177 -12.427  18.636  0.00  0.00    +0.000 A 
ATOM     32  C   UNL     1      -8.472 -11.079  18.852  0.00  0.00    +0.000 A 
ATOM     33  H   UNL     1      -9.880 -10.365  15.847  0.00  0.00    +0.000 HD
ATOM     34  H   UNL     1      -9.298 -12.709  15.451  0.00  0.00    +0.000 HD
ATOM     35  H   UNL     1      -8.210 -14.055  17.230  0.00  0.00    +0.000 HD
ATOM     36  H   UNL     1      -7.712 -13.013  19.426  0.00  0.00    +0.000 HD
ATOM     37  H   UNL     1      -8.197 -10.654  19.814  0.00  0.00    +0.000 HD
ENDBRANCH  26  27
BRANCH  26  38
ATOM     38  C   UNL     1      -9.510  -8.578  19.499  0.00  0.00    +0.000 C 
ATOM     39  H   UNL     1      -9.704  -9.447  20.141  0.00  0.00    +0.000 HD
ATOM     40  H   UNL     1     -10.393  -7.950  19.660  0.00  0.00    +0.000 HD
ATOM     41  H   UNL     1      -8.602  -8.100  19.885  0.00  0.00    +0.000 HD
ENDBRANCH  26  38
ENDBRANCH  14  26
ENDBRANCH   1  19
BRANCH   3  42
ATOM     42  C   UNL     1     -13.312  -0.760  16.165  0.00  0.00    +0.000 C 
ATOM     43  H   UNL     1     -13.759  -1.340  16.981  0.00  0.00    +0.000 HD
ATOM     44  H   UNL     1     -14.119  -0.498  15.472  0.00  0.00    +0.000 HD
ATOM     45  H   UNL     1     -12.921   0.170  16.592  0.00  0.00    +0.000 HD
ENDBRANCH   3  42
BRANCH   3  46
ATOM     46  C   UNL     1     -10.863  -0.881  15.762  0.00  0.00    +0.000 C 
ATOM     47  H   UNL     1     -10.096  -1.221  15.053  0.00  0.00    +0.000 HD
ATOM     48  H   UNL     1     -10.506  -1.117  16.769  0.00  0.00    +0.000 HD
ATOM     49  H   UNL     1     -10.901   0.203  15.658  0.00  0.00    +0.000 HD
ENDBRANCH   3  46
BRANCH   5  50
ATOM     50  C   UNL     1     -12.657  -2.469  11.733  0.00  0.00    +0.000 C 
ATOM     51  H   UNL     1     -12.178  -1.811  10.998  0.00  0.00    +0.000 HD
ATOM     52  H   UNL     1     -13.673  -2.096  11.899  0.00  0.00    +0.000 HD
ATOM     53  H   UNL     1     -12.741  -3.466  11.283  0.00  0.00    +0.000 HD
ENDBRANCH   5  50
BRANCH   5  54
ATOM     54  C   UNL     1     -10.413  -2.088  12.733  0.00  0.00    +0.000 C 
ATOM     55  H   UNL     1      -9.907  -1.708  13.627  0.00  0.00    +0.000 HD
ATOM     56  H   UNL     1     -10.406  -1.285  11.986  0.00  0.00    +0.000 HD
ATOM     57  H   UNL     1      -9.801  -2.888  12.315  0.00  0.00    +0.000 HD
ENDBRANCH   5  54
TORSDOF 9
ENDMDL
MODEL 6
REMARK VINA RESULT:    -8.660      3.226      4.655
REMARK INTER + INTRA:         -11.575
REMARK INTER:                 -12.230
REMARK INTRA:                   0.655
REMARK UNBOUND:                 0.122
REMARK  Name = 
REMARK  9 active torsions:
REMARK  status: ('A' for Active; 'I' for Inactive)
REMARK    1  A    between atoms: C_1  and  N_2
REMARK    2  A    between atoms: N_2  and  C_3
REMARK    3  A    between atoms: N_2  and  C_9
REMARK    4  A    between atoms: N_14  and  C_15
REMARK    5  A    between atoms: C_17  and  C_18
REMARK    6  A    between atoms: C_17  and  C_19
REMARK    7  A    between atoms: C_21  and  C_22
REMARK    8  A    between atoms: C_21  and  C_23
REMARK    9  A    between atoms: C_25  and  N_26
REMARK                            x       y       z     vdW  Elec       q    Type
REMARK                         _______ _______ _______ _____ _____    ______ ____
ROOT
ATOM      1  C   UNL     1     -11.906  -4.196  16.055  0.00  0.00    +0.000 C 
ATOM      2  C   UNL     1     -11.288  -4.088  14.654  0.00  0.00    +0.000 C 
ATOM      3  C   UNL     1     -11.080  -2.655  14.180  0.00  0.00    +0.000 C 
ATOM      4  N   UNL     1     -10.377  -1.868  15.261  0.00  0.00    +0.000 N 
ATOM      5  C   UNL     1     -10.826  -1.984  16.707  0.00  0.00    +0.000 C 
ATOM      6  C   UNL     1     -11.021  -3.461  17.065  0.00  0.00    +0.000 C 
ATOM      7  H   UNL     1     -12.920  -3.780  16.034  0.00  0.00    +0.000 HD
ATOM      8  H   UNL     1     -11.918  -4.626  13.932  0.00  0.00    +0.000 HD
ATOM      9  H   UNL     1     -10.325  -4.622  14.651  0.00  0.00    +0.000 HD
ATOM     10  H   UNL     1     -10.349  -0.874  14.995  0.00  0.00    +0.000 HD
ATOM     11  H   UNL     1      -9.388  -2.163  15.244  0.00  0.00    +0.000 HD
ATOM     12  H   UNL     1     -11.441  -3.531  18.075  0.00  0.00    +0.000 HD
ATOM     13  H   UNL     1     -10.044  -3.963  17.120  0.00  0.00    +0.000 HD
ENDROOT
BRANCH   1  19
ATOM     14  C   UNL     1      -9.434  -8.150  17.247  0.00  0.00    +0.000 A 
ATOM     15  N   UNL     1      -8.390  -7.639  16.553  0.00  0.00    +0.000 NA
ATOM     16  C   UNL     1      -8.546  -6.542  15.800  0.00  0.00    +0.000 A 
ATOM     17  N   UNL     1      -9.663  -5.831  15.661  0.00  0.00    +0.000 NA
ATOM     18  C   UNL     1     -10.696  -6.306  16.358  0.00  0.00    +0.000 A 
ATOM     19  N   UNL     1     -11.954  -5.623  16.348  0.00  0.00    +0.000 N 
ATOM     20  C   UNL     1     -10.676  -7.492  17.156  0.00  0.00    +0.000 A 
ATOM     21  H   UNL     1      -7.670  -6.205  15.255  0.00  0.00    +0.000 HD
ATOM     22  H   UNL     1     -12.271  -5.779  17.313  0.00  0.00    +0.000 HD
BRANCH  20  23
ATOM     23  N   UNL     1     -11.863  -7.697  17.917  0.00  0.00    +0.000 N 
ATOM     24  H   UNL     1     -12.437  -8.399  17.442  0.00  0.00    +0.000 HD
ATOM     25  H   UNL     1     -11.767  -7.945  18.883  0.00  0.00    +0.000 HD
ENDBRANCH  20  23
BRANCH  14  26
ATOM     26  N   UNL     1      -9.182  -9.319  18.009  0.00  0.00    +0.000 N 
BRANCH  26  27
ATOM     27  C   UNL     1      -8.972 -10.636  17.496  0.00  0.00    +0.000 A 
ATOM     28  C   UNL     1      -9.148 -10.944  16.137  0.00  0.00    +0.000 A 
ATOM     29  C   UNL     1      -8.898 -12.227  15.636  0.00  0.00    +0.000 A 
ATOM     30  C   UNL     1      -8.489 -13.244  16.491  0.00  0.00    +0.000 A 
ATOM     31  C   UNL     1      -8.338 -12.980  17.847  0.00  0.00    +0.000 A 
ATOM     32  C   UNL     1      -8.569 -11.692  18.337  0.00  0.00    +0.000 A 
ATOM     33  H   UNL     1      -9.497 -10.186  15.440  0.00  0.00    +0.000 HD
ATOM     34  H   UNL     1      -9.025 -12.426  14.575  0.00  0.00    +0.000 HD
ATOM     35  H   UNL     1      -8.286 -14.238  16.102  0.00  0.00    +0.000 HD
ATOM     36  H   UNL     1      -8.028 -13.770  18.525  0.00  0.00    +0.000 HD
ATOM     37  H   UNL     1      -8.402 -11.524  19.398  0.00  0.00    +0.000 HD
ENDBRANCH  26  27
BRANCH  26  38
ATOM     38  C   UNL     1      -9.112  -9.262  19.464  0.00  0.00    +0.000 C 
ATOM     39  H   UNL     1      -8.161  -8.883  19.858  0.00  0.00    +0.000 HD
ATOM     40  H   UNL     1      -9.176 -10.266  19.898  0.00  0.00    +0.000 HD
ATOM     41  H   UNL     1      -9.897  -8.605  19.855  0.00  0.00    +0.000 HD
ENDBRANCH  26  38
ENDBRANCH  14  26
ENDBRANCH   1  19
BRANCH   3  42
ATOM     42  C   UNL     1     -10.146  -2.657  12.955  0.00  0.00    +0.000 C 
ATOM     43  H   UNL     1      -9.152  -2.276  13.221  0.00  0.00    +0.000 HD
ATOM     44  H   UNL     1     -10.532  -2.021  12.150  0.00  0.00    +0.000 HD
ATOM     45  H   UNL     1     -10.019  -3.667  12.552  0.00  0.00    +0.000 HD
ENDBRANCH   3  42
BRANCH   3  46
ATOM     46  C   UNL     1     -12.391  -1.973  13.773  0.00  0.00    +0.000 C 
ATOM     47  H   UNL     1     -13.187  -2.719  13.653  0.00  0.00    +0.000 HD
ATOM     48  H   UNL     1     -12.289  -1.446  12.819  0.00  0.00    +0.000 HD
ATOM     49  H   UNL     1     -12.757  -1.267  14.517  0.00  0.00    +0.000 HD
ENDBRANCH   3  46
BRANCH   5  50
ATOM     50  C   UNL     1      -9.688  -1.390  17.557  0.00  0.00    +0.000 C 
ATOM     51  H   UNL     1      -8.744  -1.371  16.999  0.00  0.00    +0.000 HD
ATOM     52  H   UNL     1      -9.521  -1.970  18.472  0.00  0.00    +0.000 HD
ATOM     53  H   UNL     1      -9.918  -0.361  17.858  0.00  0.00    +0.000 HD
ENDBRANCH   5  50
BRANCH   5  54
ATOM     54  C   UNL     1     -12.083  -1.138  16.941  0.00  0.00    +0.000 C 
ATOM     55  H   UNL     1     -12.386  -0.609  16.030  0.00  0.00    +0.000 HD
ATOM     56  H   UNL     1     -11.899  -0.381  17.714  0.00  0.00    +0.000 HD
ATOM     57  H   UNL     1     -12.935  -1.720  17.291  0.00  0.00    +0.000 HD
ENDBRANCH   5  54
TORSDOF 9
ENDMDL
MODEL 7
REMARK VINA RESULT:    -8.407      3.791      5.224
REMARK INTER + INTRA:         -11.234
REMARK INTER:                 -10.617
REMARK INTRA:                  -0.617
REMARK UNBOUND:                 0.122
REMARK  Name = 
REMARK  9 active torsions:
REMARK  status: ('A' for Active; 'I' for Inactive)
REMARK    1  A    between atoms: C_1  and  N_2
REMARK    2  A    between atoms: N_2  and  C_3
REMARK    3  A    between atoms: N_2  and  C_9
REMARK    4  A    between atoms: N_14  and  C_15
REMARK    5  A    between atoms: C_17  and  C_18
REMARK    6  A    between atoms: C_17  and  C_19
REMARK    7  A    between atoms: C_21  and  C_22
REMARK    8  A    between atoms: C_21  and  C_23
REMARK    9  A    between atoms: C_25  and  N_26
REMARK                            x       y       z     vdW  Elec       q    Type
REMARK                         _______ _______ _______ _____ _____    ______ ____
ROOT
ATOM      1  C   UNL     1     -10.539  -3.625  15.354  0.00  0.00    +0.000 C 
ATOM      2  C   UNL     1     -10.048  -3.554  13.901  0.00  0.00    +0.000 C 
ATOM      3  C   UNL     1     -10.854  -2.605  13.023  0.00  0.00    +0.000 C 
ATOM      4  N   UNL     1     -10.997  -1.274  13.725  0.00  0.00    +0.000 N 
ATOM      5  C   UNL     1     -11.367  -1.221  15.197  0.00  0.00    +0.000 C 
ATOM      6  C   UNL     1     -10.511  -2.226  15.975  0.00  0.00    +0.000 C 
ATOM      7  H   UNL     1     -11.550  -4.050  15.371  0.00  0.00    +0.000 HD
ATOM      8  H   UNL     1     -10.058  -4.560  13.460  0.00  0.00    +0.000 HD
ATOM      9  H   UNL     1      -8.990  -3.249  13.902  0.00  0.00    +0.000 HD
ATOM     10  H   UNL     1     -11.645  -0.676  13.193  0.00  0.00    +0.000 HD
ATOM     11  H   UNL     1     -10.085  -0.798  13.641  0.00  0.00    +0.000 HD
ATOM     12  H   UNL     1     -10.853  -2.255  17.016  0.00  0.00    +0.000 HD
ATOM     13  H   UNL     1      -9.470  -1.873  16.019  0.00  0.00    +0.000 HD
ENDROOT
BRANCH   1  19
ATOM     14  C   UNL     1      -9.911  -7.814  17.637  0.00  0.00    +0.000 A 
ATOM     15  N   UNL     1     -11.182  -7.696  18.087  0.00  0.00    +0.000 NA
ATOM     16  C   UNL     1     -11.867  -6.560  17.899  0.00  0.00    +0.000 A 
ATOM     17  N   UNL     1     -11.436  -5.474  17.258  0.00  0.00    +0.000 NA
ATOM     18  C   UNL     1     -10.195  -5.583  16.787  0.00  0.00    +0.000 A 
ATOM     19  N   UNL     1      -9.608  -4.515  16.034  0.00  0.00    +0.000 N 
ATOM     20  C   UNL     1      -9.341  -6.716  16.964  0.00  0.00    +0.000 A 
ATOM     21  H   UNL     1     -12.872  -6.531  18.308  0.00  0.00    +0.000 HD
ATOM     22  H   UNL     1      -9.050  -5.039  15.349  0.00  0.00    +0.000 HD
BRANCH  20  23
ATOM     23  N   UNL     1      -8.120  -6.641  16.233  0.00  0.00    +0.000 N 
ATOM     24  H   UNL     1      -8.025  -7.491  15.671  0.00  0.00    +0.000 HD
ATOM     25  H   UNL     1      -7.966  -5.839  15.653  0.00  0.00    +0.000 HD
ENDBRANCH  20  23
BRANCH  14  26
ATOM     26  N   UNL     1      -9.257  -9.047  17.890  0.00  0.00    +0.000 N 
BRANCH  26  27
ATOM     27  C   UNL     1      -9.092 -10.123  16.963  0.00  0.00    +0.000 A 
ATOM     28  C   UNL     1      -9.275  -9.952  15.581  0.00  0.00    +0.000 A 
ATOM     29  C   UNL     1      -9.069 -11.002  14.678  0.00  0.00    +0.000 A 
ATOM     30  C   UNL     1      -8.698 -12.260  15.140  0.00  0.00    +0.000 A 
ATOM     31  C   UNL     1      -8.541 -12.469  16.504  0.00  0.00    +0.000 A 
ATOM     32  C   UNL     1      -8.728 -11.413  17.399  0.00  0.00    +0.000 A 
ATOM     33  H   UNL     1      -9.596  -8.994  15.181  0.00  0.00    +0.000 HD
ATOM     34  H   UNL     1      -9.201 -10.830  13.612  0.00  0.00    +0.000 HD
ATOM     35  H   UNL     1      -8.529 -13.072  14.439  0.00  0.00    +0.000 HD
ATOM     36  H   UNL     1      -8.260 -13.451  16.876  0.00  0.00    +0.000 HD
ATOM     37  H   UNL     1      -8.558 -11.614  18.454  0.00  0.00    +0.000 HD
ENDBRANCH  26  27
BRANCH  26  38
ATOM     38  C   UNL     1      -8.667  -9.328  19.192  0.00  0.00    +0.000 C 
ATOM     39  H   UNL     1      -8.322  -8.439  19.735  0.00  0.00    +0.000 HD
ATOM     40  H   UNL     1      -7.754  -9.924  19.087  0.00  0.00    +0.000 HD
ATOM     41  H   UNL     1      -9.399  -9.826  19.840  0.00  0.00    +0.000 HD
ENDBRANCH  26  38
ENDBRANCH  14  26
ENDBRANCH   1  19
BRANCH   3  42
ATOM     42  C   UNL     1     -10.076  -2.336  11.720  0.00  0.00    +0.000 C 
ATOM     43  H   UNL     1     -10.735  -1.915  10.951  0.00  0.00    +0.000 HD
ATOM     44  H   UNL     1      -9.645  -3.256  11.310  0.00  0.00    +0.000 HD
ATOM     45  H   UNL     1      -9.258  -1.627  11.884  0.00  0.00    +0.000 HD
ENDBRANCH   3  42
BRANCH   3  46
ATOM     46  C   UNL     1     -12.226  -3.173  12.645  0.00  0.00    +0.000 C 
ATOM     47  H   UNL     1     -12.115  -4.172  12.203  0.00  0.00    +0.000 HD
ATOM     48  H   UNL     1     -12.732  -2.542  11.908  0.00  0.00    +0.000 HD
ATOM     49  H   UNL     1     -12.889  -3.300  13.500  0.00  0.00    +0.000 HD
ENDBRANCH   3  46
BRANCH   5  50
ATOM     50  C   UNL     1     -11.045   0.209  15.667  0.00  0.00    +0.000 C 
ATOM     51  H   UNL     1     -10.926   0.891  14.816  0.00  0.00    +0.000 HD
ATOM     52  H   UNL     1     -10.119   0.244  16.251  0.00  0.00    +0.000 HD
ATOM     53  H   UNL     1     -11.848   0.604  16.301  0.00  0.00    +0.000 HD
ENDBRANCH   5  50
BRANCH   5  54
ATOM     54  C   UNL     1     -12.872  -1.450  15.374  0.00  0.00    +0.000 C 
ATOM     55  H   UNL     1     -13.427  -0.505  15.353  0.00  0.00    +0.000 HD
ATOM     56  H   UNL     1     -13.078  -1.931  16.338  0.00  0.00    +0.000 HD
ATOM     57  H   UNL     1     -13.300  -2.108  14.616  0.00  0.00    +0.000 HD
ENDBRANCH   5  54
TORSDOF 9
ENDMDL
MODEL 8
REMARK VINA RESULT:    -8.394      1.326      2.635
REMARK INTER + INTRA:         -11.216
REMARK INTER:                 -11.963
REMARK INTRA:                   0.748
REMARK UNBOUND:                 0.122
REMARK  Name = 
REMARK  9 active torsions:
REMARK  status: ('A' for Active; 'I' for Inactive)
REMARK    1  A    between atoms: C_1  and  N_2
REMARK    2  A    between atoms: N_2  and  C_3
REMARK    3  A    between atoms: N_2  and  C_9
REMARK    4  A    between atoms: N_14  and  C_15
REMARK    5  A    between atoms: C_17  and  C_18
REMARK    6  A    between atoms: C_17  and  C_19
REMARK    7  A    between atoms: C_21  and  C_22
REMARK    8  A    between atoms: C_21  and  C_23
REMARK    9  A    between atoms: C_25  and  N_26
REMARK                            x       y       z     vdW  Elec       q    Type
REMARK                         _______ _______ _______ _____ _____    ______ ____
ROOT
ATOM      1  C   UNL     1      -7.897  -3.930  19.692  0.00  0.00    +0.000 C 
ATOM      2  C   UNL     1      -7.817  -4.242  21.194  0.00  0.00    +0.000 C 
ATOM      3  C   UNL     1      -8.293  -3.102  22.086  0.00  0.00    +0.000 C 
ATOM      4  N   UNL     1      -9.636  -2.611  21.596  0.00  0.00    +0.000 N 
ATOM      5  C   UNL     1      -9.870  -2.377  20.114  0.00  0.00    +0.000 C 
ATOM      6  C   UNL     1      -9.337  -3.572  19.318  0.00  0.00    +0.000 C 
ATOM      7  H   UNL     1      -7.207  -3.111  19.458  0.00  0.00    +0.000 HD
ATOM      8  H   UNL     1      -6.785  -4.509  21.459  0.00  0.00    +0.000 HD
ATOM      9  H   UNL     1      -8.412  -5.145  21.398  0.00  0.00    +0.000 HD
ATOM     10  H   UNL     1      -9.899  -1.763  22.117  0.00  0.00    +0.000 HD
ATOM     11  H   UNL     1     -10.331  -3.315  21.889  0.00  0.00    +0.000 HD
ATOM     12  H   UNL     1      -9.418  -3.352  18.247  0.00  0.00    +0.000 HD
ATOM     13  H   UNL     1      -9.980  -4.448  19.485  0.00  0.00    +0.000 HD
ENDROOT
BRANCH   1  19
ATOM     14  C   UNL     1      -9.213  -7.777  17.118  0.00  0.00    +0.000 A 
ATOM     15  N   UNL     1     -10.394  -7.746  17.779  0.00  0.00    +0.000 NA
ATOM     16  C   UNL     1     -10.567  -6.925  18.824  0.00  0.00    +0.000 A 
ATOM     17  N   UNL     1      -9.676  -6.061  19.306  0.00  0.00    +0.000 NA
ATOM     18  C   UNL     1      -8.515  -6.061  18.650  0.00  0.00    +0.000 A 
ATOM     19  N   UNL     1      -7.473  -5.152  19.021  0.00  0.00    +0.000 N 
ATOM     20  C   UNL     1      -8.186  -6.920  17.556  0.00  0.00    +0.000 A 
ATOM     21  H   UNL     1     -11.532  -6.973  19.318  0.00  0.00    +0.000 HD
ATOM     22  H   UNL     1      -7.066  -4.932  18.102  0.00  0.00    +0.000 HD
BRANCH  20  23
ATOM     23  N   UNL     1      -6.940  -6.615  16.936  0.00  0.00    +0.000 N 
ATOM     24  H   UNL     1      -7.010  -5.691  16.501  0.00  0.00    +0.000 HD
ATOM     25  H   UNL     1      -6.111  -6.657  17.496  0.00  0.00    +0.000 HD
ENDBRANCH  20  23
BRANCH  14  26
ATOM     26  N   UNL     1      -9.115  -8.683  16.031  0.00  0.00    +0.000 N 
BRANCH  26  27
ATOM     27  C   UNL     1      -8.913 -10.095  16.122  0.00  0.00    +0.000 A 
ATOM     28  C   UNL     1      -8.693 -10.892  14.987  0.00  0.00    +0.000 A 
ATOM     29  C   UNL     1      -8.453 -12.268  15.091  0.00  0.00    +0.000 A 
ATOM     30  C   UNL     1      -8.454 -12.886  16.336  0.00  0.00    +0.000 A 
ATOM     31  C   UNL     1      -8.701 -12.130  17.475  0.00  0.00    +0.000 A 
ATOM     32  C   UNL     1      -8.919 -10.755  17.368  0.00  0.00    +0.000 A 
ATOM     33  H   UNL     1      -8.717 -10.455  13.993  0.00  0.00    +0.000 HD
ATOM     34  H   UNL     1      -8.267 -12.852  14.193  0.00  0.00    +0.000 HD
ATOM     35  H   UNL     1      -8.259 -13.952  16.418  0.00  0.00    +0.000 HD
ATOM     36  H   UNL     1      -8.712 -12.606  18.453  0.00  0.00    +0.000 HD
ATOM     37  H   UNL     1      -9.071 -10.199  18.289  0.00  0.00    +0.000 HD
ENDBRANCH  26  27
BRANCH  26  38
ATOM     38  C   UNL     1      -9.220  -8.215  14.655  0.00  0.00    +0.000 C 
ATOM     39  H   UNL     1     -10.207  -7.818  14.385  0.00  0.00    +0.000 HD
ATOM     40  H   UNL     1      -9.085  -9.042  13.949  0.00  0.00    +0.000 HD
ATOM     41  H   UNL     1      -8.498  -7.410  14.473  0.00  0.00    +0.000 HD
ENDBRANCH  26  38
ENDBRANCH  14  26
ENDBRANCH   1  19
BRANCH   3  42
ATOM     42  C   UNL     1      -8.512  -3.636  23.515  0.00  0.00    +0.000 C 
ATOM     43  H   UNL     1      -9.199  -2.988  24.073  0.00  0.00    +0.000 HD
ATOM     44  H   UNL     1      -7.574  -3.677  24.079  0.00  0.00    +0.000 HD
ATOM     45  H   UNL     1      -8.940  -4.644  23.503  0.00  0.00    +0.000 HD
ENDBRANCH   3  42
BRANCH   3  46
ATOM     46  C   UNL     1      -7.284  -1.951  22.161  0.00  0.00    +0.000 C 
ATOM     47  H   UNL     1      -7.572  -1.148  21.471  0.00  0.00    +0.000 HD
ATOM     48  H   UNL     1      -6.279  -2.280  21.882  0.00  0.00    +0.000 HD
ATOM     49  H   UNL     1      -7.231  -1.489  23.147  0.00  0.00    +0.000 HD
ENDBRANCH   3  46
BRANCH   5  50
ATOM     50  C   UNL     1     -11.396  -2.273  19.934  0.00  0.00    +0.000 C 
ATOM     51  H   UNL     1     -11.906  -2.198  20.902  0.00  0.00    +0.000 HD
ATOM     52  H   UNL     1     -11.802  -3.147  19.412  0.00  0.00    +0.000 HD
ATOM     53  H   UNL     1     -11.663  -1.386  19.347  0.00  0.00    +0.000 HD
ENDBRANCH   5  50
BRANCH   5  54
ATOM     54  C   UNL     1      -9.251  -1.043  19.683  0.00  0.00    +0.000 C 
ATOM     55  H   UNL     1      -8.803  -0.515  20.533  0.00  0.00    +0.000 HD
ATOM     56  H   UNL     1     -10.015  -0.384  19.254  0.00  0.00    +0.000 HD
ATOM     57  H   UNL     1      -8.486  -1.151  18.914  0.00  0.00    +0.000 HD
ENDBRANCH   5  54
TORSDOF 9
ENDMDL
MODEL 9
REMARK VINA RESULT:    -8.295      4.969      6.853
REMARK INTER + INTRA:         -11.082
REMARK INTER:                 -10.597
REMARK INTRA:                  -0.485
REMARK UNBOUND:                 0.122
REMARK  Name = 
REMARK  9 active torsions:
REMARK  status: ('A' for Active; 'I' for Inactive)
REMARK    1  A    between atoms: C_1  and  N_2
REMARK    2  A    between atoms: N_2  and  C_3
REMARK    3  A    between atoms: N_2  and  C_9
REMARK    4  A    between atoms: N_14  and  C_15
REMARK    5  A    between atoms: C_17  and  C_18
REMARK    6  A    between atoms: C_17  and  C_19
REMARK    7  A    between atoms: C_21  and  C_22
REMARK    8  A    between atoms: C_21  and  C_23
REMARK    9  A    between atoms: C_25  and  N_26
REMARK                            x       y       z     vdW  Elec       q    Type
REMARK                         _______ _______ _______ _____ _____    ______ ____
ROOT
ATOM      1  C   UNL     1     -10.255  -3.103  13.428  0.00  0.00    +0.000 C 
ATOM      2  C   UNL     1     -10.842  -4.111  12.430  0.00  0.00    +0.000 C 
ATOM      3  C   UNL     1     -11.599  -3.467  11.275  0.00  0.00    +0.000 C 
ATOM      4  N   UNL     1     -10.751  -2.372  10.670  0.00  0.00    +0.000 N 
ATOM      5  C   UNL     1     -10.026  -1.383  11.564  0.00  0.00    +0.000 C 
ATOM      6  C   UNL     1      -9.320  -2.138  12.695  0.00  0.00    +0.000 C 
ATOM      7  H   UNL     1     -11.075  -2.568  13.922  0.00  0.00    +0.000 HD
ATOM      8  H   UNL     1     -11.505  -4.810  12.959  0.00  0.00    +0.000 HD
ATOM      9  H   UNL     1     -10.023  -4.732  12.034  0.00  0.00    +0.000 HD
ATOM     10  H   UNL     1     -11.308  -1.854   9.976  0.00  0.00    +0.000 HD
ATOM     11  H   UNL     1     -10.021  -2.842  10.111  0.00  0.00    +0.000 HD
ATOM     12  H   UNL     1      -8.884  -1.412  13.392  0.00  0.00    +0.000 HD
ATOM     13  H   UNL     1      -8.467  -2.702  12.291  0.00  0.00    +0.000 HD
ENDROOT
BRANCH   1  19
ATOM     14  C   UNL     1     -10.478  -6.422  16.906  0.00  0.00    +0.000 A 
ATOM     15  N   UNL     1     -11.697  -5.926  17.224  0.00  0.00    +0.000 NA
ATOM     16  C   UNL     1     -12.139  -4.794  16.660  0.00  0.00    +0.000 A 
ATOM     17  N   UNL     1     -11.500  -4.064  15.748  0.00  0.00    +0.000 NA
ATOM     18  C   UNL     1     -10.308  -4.551  15.404  0.00  0.00    +0.000 A 
ATOM     19  N   UNL     1      -9.521  -3.903  14.400  0.00  0.00    +0.000 N 
ATOM     20  C   UNL     1      -9.701  -5.718  15.966  0.00  0.00    +0.000 A 
ATOM     21  H   UNL     1     -13.116  -4.446  16.982  0.00  0.00    +0.000 HD
ATOM     22  H   UNL     1      -9.083  -4.711  13.939  0.00  0.00    +0.000 HD
BRANCH  20  23
ATOM     23  N   UNL     1      -8.494  -6.110  15.320  0.00  0.00    +0.000 N 
ATOM     24  H   UNL     1      -8.652  -7.004  14.848  0.00  0.00    +0.000 HD
ATOM     25  H   UNL     1      -8.071  -5.466  14.679  0.00  0.00    +0.000 HD
ENDBRANCH  20  23
BRANCH  14  26
ATOM     26  N   UNL     1     -10.087  -7.619  17.558  0.00  0.00    +0.000 N 
BRANCH  26  27
ATOM     27  C   UNL     1      -9.809  -8.873  16.930  0.00  0.00    +0.000 A 
ATOM     28  C   UNL     1     -10.195  -9.147  15.608  0.00  0.00    +0.000 A 
ATOM     29  C   UNL     1      -9.880 -10.362  14.988  0.00  0.00    +0.000 A 
ATOM     30  C   UNL     1      -9.191 -11.347  15.687  0.00  0.00    +0.000 A 
ATOM     31  C   UNL     1      -8.824 -11.119  17.008  0.00  0.00    +0.000 A 
ATOM     32  C   UNL     1      -9.123  -9.896  17.615  0.00  0.00    +0.000 A 
ATOM     33  H   UNL     1     -10.763  -8.418  15.036  0.00  0.00    +0.000 HD
ATOM     34  H   UNL     1     -10.177 -10.534  13.956  0.00  0.00    +0.000 HD
ATOM     35  H   UNL     1      -8.938 -12.286  15.204  0.00  0.00    +0.000 HD
ATOM     36  H   UNL     1      -8.294 -11.885  17.566  0.00  0.00    +0.000 HD
ATOM     37  H   UNL     1      -8.783  -9.749  18.637  0.00  0.00    +0.000 HD
ENDBRANCH  26  27
BRANCH  26  38
ATOM     38  C   UNL     1      -9.928  -7.665  19.006  0.00  0.00    +0.000 C 
ATOM     39  H   UNL     1      -8.992  -8.127  19.345  0.00  0.00    +0.000 HD
ATOM     40  H   UNL     1     -10.696  -8.298  19.464  0.00  0.00    +0.000 HD
ATOM     41  H   UNL     1      -9.944  -6.650  19.420  0.00  0.00    +0.000 HD
ENDBRANCH  26  38
ENDBRANCH  14  26
ENDBRANCH   1  19
BRANCH   3  42
ATOM     42  C   UNL     1     -11.824  -4.515  10.169  0.00  0.00    +0.000 C 
ATOM     43  H   UNL     1     -12.757  -4.317   9.627  0.00  0.00    +0.000 HD
ATOM     44  H   UNL     1     -11.897  -5.528  10.581  0.00  0.00    +0.000 HD
ATOM     45  H   UNL     1     -11.007  -4.508   9.441  0.00  0.00    +0.000 HD
ENDBRANCH   3  42
BRANCH   3  46
ATOM     46  C   UNL     1     -12.969  -2.925  11.698  0.00  0.00    +0.000 C 
ATOM     47  H   UNL     1     -12.875  -2.325  12.612  0.00  0.00    +0.000 HD
ATOM     48  H   UNL     1     -13.673  -3.735  11.908  0.00  0.00    +0.000 HD
ATOM     49  H   UNL     1     -13.418  -2.265  10.956  0.00  0.00    +0.000 HD
ENDBRANCH   3  46
BRANCH   5  50
ATOM     50  C   UNL     1      -8.980  -0.688  10.673  0.00  0.00    +0.000 C 
ATOM     51  H   UNL     1      -8.936   0.389  10.876  0.00  0.00    +0.000 HD
ATOM     52  H   UNL     1      -9.206  -0.816   9.609  0.00  0.00    +0.000 HD
ATOM     53  H   UNL     1      -7.978  -1.101  10.848  0.00  0.00    +0.000 HD
ENDBRANCH   5  50
BRANCH   5  54
ATOM     54  C   UNL     1     -11.000  -0.314  12.072  0.00  0.00    +0.000 C 
ATOM     55  H   UNL     1     -12.038  -0.660  12.017  0.00  0.00    +0.000 HD
ATOM     56  H   UNL     1     -10.924   0.596  11.465  0.00  0.00    +0.000 HD
ATOM     57  H   UNL     1     -10.803  -0.004  13.098  0.00  0.00    +0.000 HD
ENDBRANCH   5  54
TORSDOF 9
ENDMDL
