MODEL 1
REMARK VINA RESULT:   -10.171      0.000      0.000
REMARK INTER + INTRA:         -13.096
REMARK INTER:                 -12.549
REMARK INTRA:                  -0.546
REMARK UNBOUND:                -0.546
REMARK  Name = 
REMARK  5 active torsions:
REMARK  status: ('A' for Active; 'I' for Inactive)
REMARK    1  A    between atoms: C_1  and  C_2
REMARK    2  A    between atoms: C_6  and  N_7
REMARK    3  A    between atoms: N_7  and  C_8
REMARK    4  A    between atoms: N_13  and  C_14
REMARK    5  A    between atoms: C_20  and  N_21
REMARK                            x       y       z     vdW  Elec       q    Type
REMARK                         _______ _______ _______ _____ _____    ______ ____
ROOT
ATOM      1  C   UNL     1     -10.055  -8.120  17.550  0.00  0.00    +0.000 A 
ATOM      2  N   UNL     1     -10.047  -7.245  16.515  0.00  0.00    +0.000 NA
ATOM      3  C   UNL     1      -9.626  -6.005  16.817  0.00  0.00    +0.000 A 
ATOM      4  N   UNL     1      -9.097  -5.613  17.978  0.00  0.00    +0.000 NA
ATOM      5  C   UNL     1      -9.036  -6.524  18.960  0.00  0.00    +0.000 A 
ATOM      6  N   UNL     1      -8.370  -6.222  20.170  0.00  0.00    +0.000 N 
ATOM      7  C   UNL     1      -9.547  -7.817  18.813  0.00  0.00    +0.000 A 
ATOM      8  H   UNL     1      -9.707  -5.247  16.044  0.00  0.00    +0.000 HD
ATOM      9  H   UNL     1      -9.079  -5.994  20.866  0.00  0.00    +0.000 HD
ENDROOT
BRANCH   6  10
ATOM     10  C   UNL     1      -7.317  -5.198  20.061  0.00  0.00    +0.000 C 
ATOM     11  C   UNL     1      -5.951  -5.886  19.851  0.00  0.00    +0.000 C 
ATOM     12  C   UNL     1      -4.783  -4.910  19.913  0.00  0.00    +0.000 C 
ATOM     13  C   UNL     1      -4.792  -4.122  21.216  0.00  0.00    +0.000 C 
ATOM     14  C   UNL     1      -6.122  -3.403  21.413  0.00  0.00    +0.000 C 
ATOM     15  C   UNL     1      -7.300  -4.376  21.360  0.00  0.00    +0.000 C 
ATOM     16  H   UNL     1      -7.525  -4.509  19.231  0.00  0.00    +0.000 HD
ATOM     17  H   UNL     1      -5.919  -6.400  18.883  0.00  0.00    +0.000 HD
ATOM     18  H   UNL     1      -5.810  -6.665  20.612  0.00  0.00    +0.000 HD
ATOM     19  H   UNL     1      -4.839  -4.217  19.063  0.00  0.00    +0.000 HD
ATOM     20  H   UNL     1      -3.840  -5.457  19.818  0.00  0.00    +0.000 HD
ATOM     21  H   UNL     1      -3.972  -3.395  21.214  0.00  0.00    +0.000 HD
ATOM     22  H   UNL     1      -4.613  -4.804  22.057  0.00  0.00    +0.000 HD
ATOM     23  H   UNL     1      -6.243  -2.640  20.636  0.00  0.00    +0.000 HD
ATOM     24  H   UNL     1      -6.119  -2.882  22.377  0.00  0.00    +0.000 HD
ATOM     25  H   UNL     1      -8.238  -3.815  21.456  0.00  0.00    +0.000 HD
ATOM     26  H   UNL     1      -7.252  -5.047  22.228  0.00  0.00    +0.000 HD
ENDBRANCH   6  10
BRANCH   7  27
ATOM     27  N   UNL     1      -9.606  -8.723  19.899  0.00  0.00    +0.000 N 
ATOM     28  H   UNL     1     -10.511  -9.207  19.870  0.00  0.00    +0.000 HD
ATOM     29  H   UNL     1      -9.474  -8.274  20.800  0.00  0.00    +0.000 HD
ENDBRANCH   7  27
BRANCH   1  30
ATOM     30  N   UNL     1     -10.451  -9.454  17.288  0.00  0.00    +0.000 N 
ATOM     31  H   UNL     1     -11.404  -9.473  16.926  0.00  0.00    +0.000 HD
BRANCH  30  36
ATOM     32  C   UNL     1      -8.662 -12.592  17.372  0.00  0.00    +0.000 A 
ATOM     33  C   UNL     1      -8.219 -12.735  16.058  0.00  0.00    +0.000 A 
ATOM     34  C   UNL     1      -8.481 -11.723  15.137  0.00  0.00    +0.000 A 
ATOM     35  C   UNL     1      -9.190 -10.592  15.537  0.00  0.00    +0.000 A 
ATOM     36  C   UNL     1      -9.605 -10.473  16.862  0.00  0.00    +0.000 A 
ATOM     37  N   UNL     1      -9.322 -11.474  17.710  0.00  0.00    +0.000 N 
ATOM     38  H   UNL     1      -7.686 -13.630  15.742  0.00  0.00    +0.000 HD
ATOM     39  H   UNL     1      -8.153 -11.826  14.103  0.00  0.00    +0.000 HD
ATOM     40  H   UNL     1      -9.434  -9.823  14.805  0.00  0.00    +0.000 HD
ATOM     41  H   UNL     1      -9.662 -11.337  18.667  0.00  0.00    +0.000 HD
BRANCH  32  42
ATOM     42  C   UNL     1      -8.481 -13.642  18.416  0.00  0.00    +0.000 C 
ATOM     43  H   UNL     1      -8.972 -13.364  19.355  0.00  0.00    +0.000 HD
ATOM     44  H   UNL     1      -7.415 -13.785  18.618  0.00  0.00    +0.000 HD
ATOM     45  H   UNL     1      -8.908 -14.588  18.075  0.00  0.00    +0.000 HD
ENDBRANCH  32  42
ENDBRANCH  30  36
ENDBRANCH   1  30
TORSDOF 5
ENDMDL
MODEL 2
REMARK VINA RESULT:    -9.923      1.488      7.135
REMARK INTER + INTRA:         -12.790
REMARK INTER:                 -12.466
REMARK INTRA:                  -0.324
REMARK UNBOUND:                -0.546
REMARK  Name = 
REMARK  5 active torsions:
REMARK  status: ('A' for Active; 'I' for Inactive)
REMARK    1  A    between atoms: C_1  and  C_2
REMARK    2  A    between atoms: C_6  and  N_7
REMARK    3  A    between atoms: N_7  and  C_8
REMARK    4  A    between atoms: N_13  and  C_14
REMARK    5  A    between atoms: C_20  and  N_21
REMARK                            x       y       z     vdW  Elec       q    Type
REMARK                         _______ _______ _______ _____ _____    ______ ____
ROOT
ATOM      1  C   UNL     1      -9.687  -5.857  17.845  0.00  0.00    +0.000 A 
ATOM      2  N   UNL     1     -10.808  -6.203  18.523  0.00  0.00    +0.000 NA
ATOM      3  C   UNL     1     -11.397  -7.341  18.113  0.00  0.00    +0.000 A 
ATOM      4  N   UNL     1     -10.908  -8.203  17.220  0.00  0.00    +0.000 NA
ATOM      5  C   UNL     1      -9.750  -7.878  16.626  0.00  0.00    +0.000 A 
ATOM      6  N   UNL     1      -9.105  -8.801  15.771  0.00  0.00    +0.000 N 
ATOM      7  C   UNL     1      -9.096  -6.668  16.877  0.00  0.00    +0.000 A 
ATOM      8  H   UNL     1     -12.354  -7.596  18.556  0.00  0.00    +0.000 HD
ATOM      9  H   UNL     1      -9.302  -8.524  14.811  0.00  0.00    +0.000 HD
ENDROOT
BRANCH   6  10
ATOM     10  C   UNL     1      -9.412 -10.216  16.040  0.00  0.00    +0.000 C 
ATOM     11  C   UNL     1      -8.845 -10.613  17.419  0.00  0.00    +0.000 C 
ATOM     12  C   UNL     1      -8.957 -12.107  17.695  0.00  0.00    +0.000 C 
ATOM     13  C   UNL     1      -8.299 -12.922  16.589  0.00  0.00    +0.000 C 
ATOM     14  C   UNL     1      -8.882 -12.569  15.226  0.00  0.00    +0.000 C 
ATOM     15  C   UNL     1      -8.768 -11.072  14.937  0.00  0.00    +0.000 C 
ATOM     16  H   UNL     1     -10.496 -10.394  16.011  0.00  0.00    +0.000 HD
ATOM     17  H   UNL     1      -9.363 -10.075  18.222  0.00  0.00    +0.000 HD
ATOM     18  H   UNL     1      -7.791 -10.312  17.484  0.00  0.00    +0.000 HD
ATOM     19  H   UNL     1     -10.015 -12.386  17.779  0.00  0.00    +0.000 HD
ATOM     20  H   UNL     1      -8.487 -12.340  18.656  0.00  0.00    +0.000 HD
ATOM     21  H   UNL     1      -8.435 -13.991  16.788  0.00  0.00    +0.000 HD
ATOM     22  H   UNL     1      -7.218 -12.732  16.589  0.00  0.00    +0.000 HD
ATOM     23  H   UNL     1      -9.936 -12.869  15.191  0.00  0.00    +0.000 HD
ATOM     24  H   UNL     1      -8.361 -13.135  14.447  0.00  0.00    +0.000 HD
ATOM     25  H   UNL     1      -9.242 -10.852  13.972  0.00  0.00    +0.000 HD
ATOM     26  H   UNL     1      -7.708 -10.806  14.828  0.00  0.00    +0.000 HD
ENDBRANCH   6  10
BRANCH   7  27
ATOM     27  N   UNL     1      -7.952  -6.273  16.142  0.00  0.00    +0.000 N 
ATOM     28  H   UNL     1      -7.127  -6.717  16.561  0.00  0.00    +0.000 HD
ATOM     29  H   UNL     1      -7.831  -5.265  16.105  0.00  0.00    +0.000 HD
ENDBRANCH   7  27
BRANCH   1  30
ATOM     30  N   UNL     1      -8.999  -4.689  18.254  0.00  0.00    +0.000 N 
ATOM     31  H   UNL     1      -9.568  -3.863  18.073  0.00  0.00    +0.000 HD
BRANCH  30  36
ATOM     32  C   UNL     1      -5.943  -5.119  20.135  0.00  0.00    +0.000 A 
ATOM     33  C   UNL     1      -6.130  -4.280  21.232  0.00  0.00    +0.000 A 
ATOM     34  C   UNL     1      -7.337  -3.598  21.370  0.00  0.00    +0.000 A 
ATOM     35  C   UNL     1      -8.332  -3.753  20.407  0.00  0.00    +0.000 A 
ATOM     36  C   UNL     1      -8.119  -4.612  19.330  0.00  0.00    +0.000 A 
ATOM     37  N   UNL     1      -6.941  -5.249  19.248  0.00  0.00    +0.000 N 
ATOM     38  H   UNL     1      -5.342  -4.142  21.971  0.00  0.00    +0.000 HD
ATOM     39  H   UNL     1      -7.493  -2.928  22.215  0.00  0.00    +0.000 HD
ATOM     40  H   UNL     1      -9.256  -3.184  20.492  0.00  0.00    +0.000 HD
ATOM     41  H   UNL     1      -6.837  -5.858  18.429  0.00  0.00    +0.000 HD
BRANCH  32  42
ATOM     42  C   UNL     1      -4.669  -5.847  19.868  0.00  0.00    +0.000 C 
ATOM     43  H   UNL     1      -4.652  -6.824  20.366  0.00  0.00    +0.000 HD
ATOM     44  H   UNL     1      -3.822  -5.262  20.238  0.00  0.00    +0.000 HD
ATOM     45  H   UNL     1      -4.546  -6.010  18.795  0.00  0.00    +0.000 HD
ENDBRANCH  32  42
ENDBRANCH  30  36
ENDBRANCH   1  30
TORSDOF 5
ENDMDL
MODEL 3
REMARK VINA RESULT:    -9.703      2.675      4.625
REMARK INTER + INTRA:         -12.518
REMARK INTER:                 -12.013
REMARK INTRA:                  -0.506
REMARK UNBOUND:                -0.546
REMARK  Name = 
REMARK  5 active torsions:
REMARK  status: ('A' for Active; 'I' for Inactive)
REMARK    1  A    between atoms: C_1  and  C_2
REMARK    2  A    between atoms: C_6  and  N_7
REMARK    3  A    between atoms: N_7  and  C_8
REMARK    4  A    between atoms: N_13  and  C_14
REMARK    5  A    between atoms: C_20  and  N_21
REMARK                            x       y       z     vdW  Elec       q    Type
REMARK                         _______ _______ _______ _____ _____    ______ ____
ROOT
ATOM      1  C   UNL     1      -9.524  -8.454  17.287  0.00  0.00    +0.000 A 
ATOM      2  N   UNL     1      -8.437  -7.852  17.829  0.00  0.00    +0.000 NA
ATOM      3  C   UNL     1      -8.200  -6.601  17.394  0.00  0.00    +0.000 A 
ATOM      4  N   UNL     1      -8.998  -5.875  16.609  0.00  0.00    +0.000 NA
ATOM      5  C   UNL     1     -10.113  -6.468  16.156  0.00  0.00    +0.000 A 
ATOM      6  N   UNL     1     -11.070  -5.721  15.431  0.00  0.00    +0.000 N 
ATOM      7  C   UNL     1     -10.418  -7.802  16.439  0.00  0.00    +0.000 A 
ATOM      8  H   UNL     1      -7.281  -6.125  17.720  0.00  0.00    +0.000 HD
ATOM      9  H   UNL     1     -10.944  -5.933  14.442  0.00  0.00    +0.000 HD
ENDROOT
BRANCH   6  10
ATOM     10  C   UNL     1     -11.078  -4.276  15.716  0.00  0.00    +0.000 C 
ATOM     11  C   UNL     1     -11.942  -4.003  16.965  0.00  0.00    +0.000 C 
ATOM     12  C   UNL     1     -12.156  -2.517  17.221  0.00  0.00    +0.000 C 
ATOM     13  C   UNL     1     -12.745  -1.826  15.999  0.00  0.00    +0.000 C 
ATOM     14  C   UNL     1     -11.875  -2.053  14.768  0.00  0.00    +0.000 C 
ATOM     15  C   UNL     1     -11.662  -3.543  14.497  0.00  0.00    +0.000 C 
ATOM     16  H   UNL     1     -10.057  -3.903  15.874  0.00  0.00    +0.000 HD
ATOM     17  H   UNL     1     -11.486  -4.445  17.859  0.00  0.00    +0.000 HD
ATOM     18  H   UNL     1     -12.919  -4.493  16.851  0.00  0.00    +0.000 HD
ATOM     19  H   UNL     1     -11.198  -2.049  17.484  0.00  0.00    +0.000 HD
ATOM     20  H   UNL     1     -12.822  -2.383  18.079  0.00  0.00    +0.000 HD
ATOM     21  H   UNL     1     -12.843  -0.752  16.193  0.00  0.00    +0.000 HD
ATOM     22  H   UNL     1     -13.756  -2.211  15.813  0.00  0.00    +0.000 HD
ATOM     23  H   UNL     1     -10.904  -1.565  14.911  0.00  0.00    +0.000 HD
ATOM     24  H   UNL     1     -12.344  -1.585  13.896  0.00  0.00    +0.000 HD
ATOM     25  H   UNL     1     -10.993  -3.663  13.636  0.00  0.00    +0.000 HD
ATOM     26  H   UNL     1     -12.619  -3.997  14.210  0.00  0.00    +0.000 HD
ENDBRANCH   6  10
BRANCH   7  27
ATOM     27  N   UNL     1     -11.522  -8.457  15.841  0.00  0.00    +0.000 N 
ATOM     28  H   UNL     1     -11.313  -9.460  15.785  0.00  0.00    +0.000 HD
ATOM     29  H   UNL     1     -11.751  -8.092  14.922  0.00  0.00    +0.000 HD
ENDBRANCH   7  27
BRANCH   1  30
ATOM     30  N   UNL     1      -9.849  -9.758  17.733  0.00  0.00    +0.000 N 
ATOM     31  H   UNL     1     -10.841  -9.814  17.963  0.00  0.00    +0.000 HD
BRANCH  30  36
ATOM     32  C   UNL     1      -8.720 -13.191  17.795  0.00  0.00    +0.000 A 
ATOM     33  C   UNL     1      -8.389 -13.435  16.463  0.00  0.00    +0.000 A 
ATOM     34  C   UNL     1      -8.495 -12.402  15.534  0.00  0.00    +0.000 A 
ATOM     35  C   UNL     1      -8.941 -11.147  15.944  0.00  0.00    +0.000 A 
ATOM     36  C   UNL     1      -9.249 -10.932  17.287  0.00  0.00    +0.000 A 
ATOM     37  N   UNL     1      -9.124 -11.958  18.141  0.00  0.00    +0.000 N 
ATOM     38  H   UNL     1      -8.064 -14.423  16.141  0.00  0.00    +0.000 HD
ATOM     39  H   UNL     1      -8.253 -12.582  14.487  0.00  0.00    +0.000 HD
ATOM     40  H   UNL     1      -9.067 -10.354  15.209  0.00  0.00    +0.000 HD
ATOM     41  H   UNL     1      -9.375 -11.744  19.112  0.00  0.00    +0.000 HD
BRANCH  32  42
ATOM     42  C   UNL     1      -8.694 -14.242  18.852  0.00  0.00    +0.000 C 
ATOM     43  H   UNL     1      -9.115 -15.187  18.490  0.00  0.00    +0.000 HD
ATOM     44  H   UNL     1      -9.282 -13.916  19.715  0.00  0.00    +0.000 HD
ATOM     45  H   UNL     1      -7.667 -14.428  19.173  0.00  0.00    +0.000 HD
ENDBRANCH  32  42
ENDBRANCH  30  36
ENDBRANCH   1  30
TORSDOF 5
ENDMDL
MODEL 4
REMARK VINA RESULT:    -9.683      1.273      7.640
REMARK INTER + INTRA:         -12.494
REMARK INTER:                 -12.822
REMARK INTRA:                   0.328
REMARK UNBOUND:                -0.546
REMARK  Name = 
REMARK  5 active torsions:
REMARK  status: ('A' for Active; 'I' for Inactive)
REMARK    1  A    between atoms: C_1  and  C_2
REMARK    2  A    between atoms: C_6  and  N_7
REMARK    3  A    between atoms: N_7  and  C_8
REMARK    4  A    between atoms: N_13  and  C_14
REMARK    5  A    between atoms: C_20  and  N_21
REMARK                            x       y       z     vdW  Elec       q    Type
REMARK                         _______ _______ _______ _____ _____    ______ ____
ROOT
ATOM      1  C   UNL     1      -8.920  -7.092  19.449  0.00  0.00    +0.000 A 
ATOM      2  N   UNL     1      -8.510  -7.848  20.497  0.00  0.00    +0.000 NA
ATOM      3  C   UNL     1      -8.557  -9.177  20.298  0.00  0.00    +0.000 A 
ATOM      4  N   UNL     1      -8.828  -9.792  19.146  0.00  0.00    +0.000 NA
ATOM      5  C   UNL     1      -9.147  -9.016  18.099  0.00  0.00    +0.000 A 
ATOM      6  N   UNL     1      -9.316  -9.586  16.816  0.00  0.00    +0.000 N 
ATOM      7  C   UNL     1      -9.248  -7.626  18.203  0.00  0.00    +0.000 A 
ATOM      8  H   UNL     1      -8.341  -9.817  21.148  0.00  0.00    +0.000 HD
ATOM      9  H   UNL     1     -10.317  -9.671  16.645  0.00  0.00    +0.000 HD
ENDROOT
BRANCH   6  10
ATOM     10  C   UNL     1      -8.582 -10.844  16.593  0.00  0.00    +0.000 C 
ATOM     11  C   UNL     1      -8.708 -11.256  15.111  0.00  0.00    +0.000 C 
ATOM     12  C   UNL     1      -8.134 -12.640  14.834  0.00  0.00    +0.000 C 
ATOM     13  C   UNL     1      -8.766 -13.690  15.739  0.00  0.00    +0.000 C 
ATOM     14  C   UNL     1      -8.610 -13.313  17.208  0.00  0.00    +0.000 C 
ATOM     15  C   UNL     1      -9.190 -11.928  17.498  0.00  0.00    +0.000 C 
ATOM     16  H   UNL     1      -7.524 -10.733  16.867  0.00  0.00    +0.000 HD
ATOM     17  H   UNL     1      -8.197 -10.536  14.462  0.00  0.00    +0.000 HD
ATOM     18  H   UNL     1      -9.764 -11.238  14.812  0.00  0.00    +0.000 HD
ATOM     19  H   UNL     1      -7.048 -12.625  14.990  0.00  0.00    +0.000 HD
ATOM     20  H   UNL     1      -8.304 -12.905  13.786  0.00  0.00    +0.000 HD
ATOM     21  H   UNL     1      -8.303 -14.665  15.553  0.00  0.00    +0.000 HD
ATOM     22  H   UNL     1      -9.831 -13.790  15.495  0.00  0.00    +0.000 HD
ATOM     23  H   UNL     1      -7.547 -13.328  17.478  0.00  0.00    +0.000 HD
ATOM     24  H   UNL     1      -9.111 -14.060  17.834  0.00  0.00    +0.000 HD
ATOM     25  H   UNL     1      -9.013 -11.675  18.551  0.00  0.00    +0.000 HD
ATOM     26  H   UNL     1     -10.279 -11.959  17.366  0.00  0.00    +0.000 HD
ENDBRANCH   6  10
BRANCH   7  27
ATOM     27  N   UNL     1      -9.722  -6.830  17.132  0.00  0.00    +0.000 N 
ATOM     28  H   UNL     1      -9.506  -5.848  17.336  0.00  0.00    +0.000 HD
ATOM     29  H   UNL     1     -10.716  -6.946  16.959  0.00  0.00    +0.000 HD
ENDBRANCH   7  27
BRANCH   1  30
ATOM     30  N   UNL     1      -8.857  -5.684  19.582  0.00  0.00    +0.000 N 
ATOM     31  H   UNL     1      -9.797  -5.295  19.651  0.00  0.00    +0.000 HD
BRANCH  30  36
ATOM     32  C   UNL     1      -7.247  -3.724  22.156  0.00  0.00    +0.000 A 
ATOM     33  C   UNL     1      -5.896  -3.825  21.827  0.00  0.00    +0.000 A 
ATOM     34  C   UNL     1      -5.525  -4.523  20.680  0.00  0.00    +0.000 A 
ATOM     35  C   UNL     1      -6.504  -5.118  19.886  0.00  0.00    +0.000 A 
ATOM     36  C   UNL     1      -7.847  -4.984  20.235  0.00  0.00    +0.000 A 
ATOM     37  N   UNL     1      -8.150  -4.297  21.346  0.00  0.00    +0.000 N 
ATOM     38  H   UNL     1      -5.132  -3.380  22.461  0.00  0.00    +0.000 HD
ATOM     39  H   UNL     1      -4.472  -4.622  20.417  0.00  0.00    +0.000 HD
ATOM     40  H   UNL     1      -6.209  -5.701  19.015  0.00  0.00    +0.000 HD
ATOM     41  H   UNL     1      -9.152  -4.243  21.559  0.00  0.00    +0.000 HD
BRANCH  32  42
ATOM     42  C   UNL     1      -7.741  -3.049  23.390  0.00  0.00    +0.000 C 
ATOM     43  H   UNL     1      -6.914  -2.757  24.048  0.00  0.00    +0.000 HD
ATOM     44  H   UNL     1      -8.397  -3.725  23.947  0.00  0.00    +0.000 HD
ATOM     45  H   UNL     1      -8.301  -2.148  23.128  0.00  0.00    +0.000 HD
ENDBRANCH  32  42
ENDBRANCH  30  36
ENDBRANCH   1  30
TORSDOF 5
ENDMDL
MODEL 5
REMARK VINA RESULT:    -9.620      3.314      7.581
REMARK INTER + INTRA:         -12.416
REMARK INTER:                 -11.874
REMARK INTRA:                  -0.542
REMARK UNBOUND:                -0.546
REMARK  Name = 
REMARK  5 active torsions:
REMARK  status: ('A' for Active; 'I' for Inactive)
REMARK    1  A    between atoms: C_1  and  C_2
REMARK    2  A    between atoms: C_6  and  N_7
REMARK    3  A    between atoms: N_7  and  C_8
REMARK    4  A    between atoms: N_13  and  C_14
REMARK    5  A    between atoms: C_20  and  N_21
REMARK                            x       y       z     vdW  Elec       q    Type
REMARK                         _______ _______ _______ _____ _____    ______ ____
ROOT
ATOM      1  C   UNL     1     -10.625  -6.304  16.349  0.00  0.00    +0.000 A 
ATOM      2  N   UNL     1      -9.420  -5.921  15.861  0.00  0.00    +0.000 NA
ATOM      3  C   UNL     1      -8.399  -6.749  16.142  0.00  0.00    +0.000 A 
ATOM      4  N   UNL     1      -8.493  -7.948  16.720  0.00  0.00    +0.000 NA
ATOM      5  C   UNL     1      -9.712  -8.342  17.116  0.00  0.00    +0.000 A 
ATOM      6  N   UNL     1      -9.911  -9.651  17.613  0.00  0.00    +0.000 N 
ATOM      7  C   UNL     1     -10.839  -7.526  16.988  0.00  0.00    +0.000 A 
ATOM      8  H   UNL     1      -7.401  -6.425  15.863  0.00  0.00    +0.000 HD
ATOM      9  H   UNL     1      -9.953  -9.593  18.629  0.00  0.00    +0.000 HD
ENDROOT
BRANCH   6  10
ATOM     10  C   UNL     1      -8.943 -10.652  17.131  0.00  0.00    +0.000 C 
ATOM     11  C   UNL     1      -9.258 -11.005  15.661  0.00  0.00    +0.000 C 
ATOM     12  C   UNL     1      -8.422 -12.168  15.143  0.00  0.00    +0.000 C 
ATOM     13  C   UNL     1      -8.571 -13.395  16.033  0.00  0.00    +0.000 C 
ATOM     14  C   UNL     1      -8.221 -13.067  17.480  0.00  0.00    +0.000 C 
ATOM     15  C   UNL     1      -9.061 -11.906  18.013  0.00  0.00    +0.000 C 
ATOM     16  H   UNL     1      -7.915 -10.276  17.218  0.00  0.00    +0.000 HD
ATOM     17  H   UNL     1      -9.088 -10.141  15.009  0.00  0.00    +0.000 HD
ATOM     18  H   UNL     1     -10.323 -11.255  15.563  0.00  0.00    +0.000 HD
ATOM     19  H   UNL     1      -7.366 -11.869  15.099  0.00  0.00    +0.000 HD
ATOM     20  H   UNL     1      -8.727 -12.413  14.121  0.00  0.00    +0.000 HD
ATOM     21  H   UNL     1      -7.924 -14.199  15.665  0.00  0.00    +0.000 HD
ATOM     22  H   UNL     1      -9.603 -13.764  15.977  0.00  0.00    +0.000 HD
ATOM     23  H   UNL     1      -7.157 -12.811  17.550  0.00  0.00    +0.000 HD
ATOM     24  H   UNL     1      -8.379 -13.953  18.105  0.00  0.00    +0.000 HD
ATOM     25  H   UNL     1      -8.745 -11.670  19.037  0.00  0.00    +0.000 HD
ATOM     26  H   UNL     1     -10.110 -12.221  18.078  0.00  0.00    +0.000 HD
ENDBRANCH   6  10
BRANCH   7  27
ATOM     27  N   UNL     1     -12.092  -7.893  17.536  0.00  0.00    +0.000 N 
ATOM     28  H   UNL     1     -12.704  -8.200  16.772  0.00  0.00    +0.000 HD
ATOM     29  H   UNL     1     -12.532  -7.143  18.061  0.00  0.00    +0.000 HD
ENDBRANCH   7  27
BRANCH   1  30
ATOM     30  N   UNL     1     -11.748  -5.495  16.053  0.00  0.00    +0.000 N 
ATOM     31  H   UNL     1     -12.403  -5.503  16.834  0.00  0.00    +0.000 HD
BRANCH  30  36
ATOM     32  C   UNL     1     -11.895  -3.433  13.089  0.00  0.00    +0.000 A 
ATOM     33  C   UNL     1     -12.016  -2.145  13.609  0.00  0.00    +0.000 A 
ATOM     34  C   UNL     1     -11.991  -1.963  14.990  0.00  0.00    +0.000 A 
ATOM     35  C   UNL     1     -11.857  -3.067  15.830  0.00  0.00    +0.000 A 
ATOM     36  C   UNL     1     -11.722  -4.340  15.277  0.00  0.00    +0.000 A 
ATOM     37  N   UNL     1     -11.748  -4.459  13.941  0.00  0.00    +0.000 N 
ATOM     38  H   UNL     1     -12.144  -1.287  12.952  0.00  0.00    +0.000 HD
ATOM     39  H   UNL     1     -12.097  -0.964  15.412  0.00  0.00    +0.000 HD
ATOM     40  H   UNL     1     -11.883  -2.929  16.909  0.00  0.00    +0.000 HD
ATOM     41  H   UNL     1     -11.656  -5.419  13.592  0.00  0.00    +0.000 HD
BRANCH  32  42
ATOM     42  C   UNL     1     -11.967  -3.737  11.631  0.00  0.00    +0.000 C 
ATOM     43  H   UNL     1     -12.282  -2.861  11.052  0.00  0.00    +0.000 HD
ATOM     44  H   UNL     1     -12.690  -4.539  11.454  0.00  0.00    +0.000 HD
ATOM     45  H   UNL     1     -10.989  -4.055  11.264  0.00  0.00    +0.000 HD
ENDBRANCH  32  42
ENDBRANCH  30  36
ENDBRANCH   1  30
TORSDOF 5
ENDMDL
MODEL 6
REMARK VINA RESULT:    -9.609      1.495      2.495
REMARK INTER + INTRA:         -12.402
REMARK INTER:                 -11.818
REMARK INTRA:                  -0.584
REMARK UNBOUND:                -0.546
REMARK  Name = 
REMARK  5 active torsions:
REMARK  status: ('A' for Active; 'I' for Inactive)
REMARK    1  A    between atoms: C_1  and  C_2
REMARK    2  A    between atoms: C_6  and  N_7
REMARK    3  A    between atoms: N_7  and  C_8
REMARK    4  A    between atoms: N_13  and  C_14
REMARK    5  A    between atoms: C_20  and  N_21
REMARK                            x       y       z     vdW  Elec       q    Type
REMARK                         _______ _______ _______ _____ _____    ______ ____
ROOT
ATOM      1  C   UNL     1      -8.912  -8.567  18.012  0.00  0.00    +0.000 A 
ATOM      2  N   UNL     1      -9.151  -9.142  19.216  0.00  0.00    +0.000 NA
ATOM      3  C   UNL     1      -8.814  -8.397  20.283  0.00  0.00    +0.000 A 
ATOM      4  N   UNL     1      -8.411  -7.125  20.261  0.00  0.00    +0.000 NA
ATOM      5  C   UNL     1      -8.266  -6.551  19.057  0.00  0.00    +0.000 A 
ATOM      6  N   UNL     1      -7.973  -5.171  18.957  0.00  0.00    +0.000 N 
ATOM      7  C   UNL     1      -8.471  -7.252  17.865  0.00  0.00    +0.000 A 
ATOM      8  H   UNL     1      -8.888  -8.862  21.261  0.00  0.00    +0.000 HD
ATOM      9  H   UNL     1      -6.977  -5.080  18.762  0.00  0.00    +0.000 HD
ENDROOT
BRANCH   6  10
ATOM     10  C   UNL     1      -8.414  -4.358  20.103  0.00  0.00    +0.000 C 
ATOM     11  C   UNL     1      -9.129  -3.090  19.589  0.00  0.00    +0.000 C 
ATOM     12  C   UNL     1      -9.453  -2.103  20.703  0.00  0.00    +0.000 C 
ATOM     13  C   UNL     1      -8.204  -1.732  21.492  0.00  0.00    +0.000 C 
ATOM     14  C   UNL     1      -7.513  -2.975  22.041  0.00  0.00    +0.000 C 
ATOM     15  C   UNL     1      -7.176  -3.969  20.929  0.00  0.00    +0.000 C 
ATOM     16  H   UNL     1      -9.085  -4.932  20.756  0.00  0.00    +0.000 HD
ATOM     17  H   UNL     1     -10.063  -3.351  19.077  0.00  0.00    +0.000 HD
ATOM     18  H   UNL     1      -8.501  -2.592  18.838  0.00  0.00    +0.000 HD
ATOM     19  H   UNL     1     -10.198  -2.544  21.378  0.00  0.00    +0.000 HD
ATOM     20  H   UNL     1      -9.902  -1.201  20.276  0.00  0.00    +0.000 HD
ATOM     21  H   UNL     1      -8.472  -1.060  22.314  0.00  0.00    +0.000 HD
ATOM     22  H   UNL     1      -7.511  -1.182  20.842  0.00  0.00    +0.000 HD
ATOM     23  H   UNL     1      -8.164  -3.459  22.779  0.00  0.00    +0.000 HD
ATOM     24  H   UNL     1      -6.595  -2.684  22.564  0.00  0.00    +0.000 HD
ATOM     25  H   UNL     1      -6.727  -4.868  21.370  0.00  0.00    +0.000 HD
ATOM     26  H   UNL     1      -6.411  -3.531  20.274  0.00  0.00    +0.000 HD
ENDBRANCH   6  10
BRANCH   7  27
ATOM     27  N   UNL     1      -8.180  -6.680  16.604  0.00  0.00    +0.000 N 
ATOM     28  H   UNL     1      -7.639  -7.359  16.056  0.00  0.00    +0.000 HD
ATOM     29  H   UNL     1      -7.676  -5.800  16.672  0.00  0.00    +0.000 HD
ENDBRANCH   7  27
BRANCH   1  30
ATOM     30  N   UNL     1      -9.281  -9.286  16.849  0.00  0.00    +0.000 N 
ATOM     31  H   UNL     1      -9.378  -8.650  16.058  0.00  0.00    +0.000 HD
BRANCH  30  36
ATOM     32  C   UNL     1      -8.658 -12.808  17.367  0.00  0.00    +0.000 A 
ATOM     33  C   UNL     1      -8.465 -13.285  16.072  0.00  0.00    +0.000 A 
ATOM     34  C   UNL     1      -8.489 -12.389  15.005  0.00  0.00    +0.000 A 
ATOM     35  C   UNL     1      -8.717 -11.035  15.245  0.00  0.00    +0.000 A 
ATOM     36  C   UNL     1      -8.891 -10.589  16.554  0.00  0.00    +0.000 A 
ATOM     37  N   UNL     1      -8.853 -11.492  17.545  0.00  0.00    +0.000 N 
ATOM     38  H   UNL     1      -8.311 -14.346  15.884  0.00  0.00    +0.000 HD
ATOM     39  H   UNL     1      -8.352 -12.749  13.986  0.00  0.00    +0.000 HD
ATOM     40  H   UNL     1      -8.781 -10.344  14.407  0.00  0.00    +0.000 HD
ATOM     41  H   UNL     1      -8.999 -11.108  18.485  0.00  0.00    +0.000 HD
BRANCH  32  42
ATOM     42  C   UNL     1      -8.707 -13.692  18.567  0.00  0.00    +0.000 C 
ATOM     43  H   UNL     1      -8.780 -14.749  18.286  0.00  0.00    +0.000 HD
ATOM     44  H   UNL     1      -9.580 -13.442  19.178  0.00  0.00    +0.000 HD
ATOM     45  H   UNL     1      -7.805 -13.561  19.168  0.00  0.00    +0.000 HD
ENDBRANCH  32  42
ENDBRANCH  30  36
ENDBRANCH   1  30
TORSDOF 5
ENDMDL
MODEL 7
REMARK VINA RESULT:    -9.177      2.313      7.713
REMARK INTER + INTRA:         -11.869
REMARK INTER:                 -11.185
REMARK INTRA:                  -0.684
REMARK UNBOUND:                -0.546
REMARK  Name = 
REMARK  5 active torsions:
REMARK  status: ('A' for Active; 'I' for Inactive)
REMARK    1  A    between atoms: C_1  and  C_2
REMARK    2  A    between atoms: C_6  and  N_7
REMARK    3  A    between atoms: N_7  and  C_8
REMARK    4  A    between atoms: N_13  and  C_14
REMARK    5  A    between atoms: C_20  and  N_21
REMARK                            x       y       z     vdW  Elec       q    Type
REMARK                         _______ _______ _______ _____ _____    ______ ____
ROOT
ATOM      1  C   UNL     1     -10.006  -5.785  18.352  0.00  0.00    +0.000 A 
ATOM      2  N   UNL     1      -8.762  -5.709  18.884  0.00  0.00    +0.000 NA
ATOM      3  C   UNL     1      -8.133  -6.888  19.039  0.00  0.00    +0.000 A 
ATOM      4  N   UNL     1      -8.559  -8.072  18.596  0.00  0.00    +0.000 NA
ATOM      5  C   UNL     1      -9.757  -8.105  17.995  0.00  0.00    +0.000 A 
ATOM      6  N   UNL     1     -10.214  -9.296  17.383  0.00  0.00    +0.000 N 
ATOM      7  C   UNL     1     -10.564  -6.970  17.874  0.00  0.00    +0.000 A 
ATOM      8  H   UNL     1      -7.181  -6.882  19.560  0.00  0.00    +0.000 HD
ATOM      9  H   UNL     1     -10.881  -9.733  18.017  0.00  0.00    +0.000 HD
ENDROOT
BRANCH   6  10
ATOM     10  C   UNL     1      -9.151 -10.214  16.939  0.00  0.00    +0.000 C 
ATOM     11  C   UNL     1      -9.303 -10.483  15.426  0.00  0.00    +0.000 C 
ATOM     12  C   UNL     1      -8.358 -11.566  14.922  0.00  0.00    +0.000 C 
ATOM     13  C   UNL     1      -8.523 -12.855  15.717  0.00  0.00    +0.000 C 
ATOM     14  C   UNL     1      -8.332 -12.608  17.209  0.00  0.00    +0.000 C 
ATOM     15  C   UNL     1      -9.282 -11.528  17.726  0.00  0.00    +0.000 C 
ATOM     16  H   UNL     1      -8.158  -9.794  17.150  0.00  0.00    +0.000 HD
ATOM     17  H   UNL     1      -9.120  -9.570  14.848  0.00  0.00    +0.000 HD
ATOM     18  H   UNL     1     -10.339 -10.778  15.207  0.00  0.00    +0.000 HD
ATOM     19  H   UNL     1      -7.321 -11.214  15.002  0.00  0.00    +0.000 HD
ATOM     20  H   UNL     1      -8.550 -11.757  13.862  0.00  0.00    +0.000 HD
ATOM     21  H   UNL     1      -7.800 -13.600  15.366  0.00  0.00    +0.000 HD
ATOM     22  H   UNL     1      -9.523 -13.270  15.537  0.00  0.00    +0.000 HD
ATOM     23  H   UNL     1      -7.295 -12.305  17.399  0.00  0.00    +0.000 HD
ATOM     24  H   UNL     1      -8.500 -13.540  17.759  0.00  0.00    +0.000 HD
ATOM     25  H   UNL     1      -9.079 -11.345  18.789  0.00  0.00    +0.000 HD
ATOM     26  H   UNL     1     -10.314 -11.898  17.668  0.00  0.00    +0.000 HD
ENDBRANCH   6  10
BRANCH   7  27
ATOM     27  N   UNL     1     -11.883  -7.044  17.365  0.00  0.00    +0.000 N 
ATOM     28  H   UNL     1     -12.008  -6.295  16.675  0.00  0.00    +0.000 HD
ATOM     29  H   UNL     1     -12.593  -6.981  18.089  0.00  0.00    +0.000 HD
ENDBRANCH   7  27
BRANCH   1  30
ATOM     30  N   UNL     1     -10.706  -4.575  18.127  0.00  0.00    +0.000 N 
ATOM     31  H   UNL     1     -11.704  -4.757  18.034  0.00  0.00    +0.000 HD
BRANCH  30  36
ATOM     32  C   UNL     1      -9.432  -2.161  20.496  0.00  0.00    +0.000 A 
ATOM     33  C   UNL     1      -9.287  -1.010  19.723  0.00  0.00    +0.000 A 
ATOM     34  C   UNL     1      -9.681  -1.033  18.387  0.00  0.00    +0.000 A 
ATOM     35  C   UNL     1     -10.201  -2.205  17.840  0.00  0.00    +0.000 A 
ATOM     36  C   UNL     1     -10.348  -3.333  18.645  0.00  0.00    +0.000 A 
ATOM     37  N   UNL     1      -9.958  -3.256  19.926  0.00  0.00    +0.000 N 
ATOM     38  H   UNL     1      -8.858  -0.103  20.145  0.00  0.00    +0.000 HD
ATOM     39  H   UNL     1      -9.562  -0.145  17.766  0.00  0.00    +0.000 HD
ATOM     40  H   UNL     1     -10.466  -2.235  16.785  0.00  0.00    +0.000 HD
ATOM     41  H   UNL     1     -10.078  -4.119  20.466  0.00  0.00    +0.000 HD
BRANCH  32  42
ATOM     42  C   UNL     1      -8.989  -2.254  21.917  0.00  0.00    +0.000 C 
ATOM     43  H   UNL     1      -9.066  -1.287  22.427  0.00  0.00    +0.000 HD
ATOM     44  H   UNL     1      -7.945  -2.579  21.960  0.00  0.00    +0.000 HD
ATOM     45  H   UNL     1      -9.607  -2.974  22.457  0.00  0.00    +0.000 HD
ENDBRANCH  32  42
ENDBRANCH  30  36
ENDBRANCH   1  30
TORSDOF 5
ENDMDL
MODEL 8
REMARK VINA RESULT:    -9.153      2.510      3.541
REMARK INTER + INTRA:         -11.840
REMARK INTER:                 -11.161
REMARK INTRA:                  -0.679
REMARK UNBOUND:                -0.546
REMARK  Name = 
REMARK  5 active torsions:
REMARK  status: ('A' for Active; 'I' for Inactive)
REMARK    1  A    between atoms: C_1  and  C_2
REMARK    2  A    between atoms: C_6  and  N_7
REMARK    3  A    between atoms: N_7  and  C_8
REMARK    4  A    between atoms: N_13  and  C_14
REMARK    5  A    between atoms: C_20  and  N_21
REMARK                            x       y       z     vdW  Elec       q    Type
REMARK                         _______ _______ _______ _____ _____    ______ ____
ROOT
ATOM      1  C   UNL     1      -9.633  -7.953  17.368  0.00  0.00    +0.000 A 
ATOM      2  N   UNL     1      -8.722  -8.073  18.364  0.00  0.00    +0.000 NA
ATOM      3  C   UNL     1      -8.234  -6.913  18.837  0.00  0.00    +0.000 A 
ATOM      4  N   UNL     1      -8.663  -5.690  18.518  0.00  0.00    +0.000 NA
ATOM      5  C   UNL     1      -9.628  -5.603  17.591  0.00  0.00    +0.000 A 
ATOM      6  N   UNL     1     -10.224  -4.354  17.299  0.00  0.00    +0.000 N 
ATOM      7  C   UNL     1     -10.139  -6.727  16.936  0.00  0.00    +0.000 A 
ATOM      8  H   UNL     1      -7.425  -6.967  19.558  0.00  0.00    +0.000 HD
ATOM      9  H   UNL     1      -9.810  -4.007  16.435  0.00  0.00    +0.000 HD
ENDROOT
BRANCH   6  10
ATOM     10  C   UNL     1     -10.178  -3.372  18.397  0.00  0.00    +0.000 C 
ATOM     11  C   UNL     1     -11.578  -3.248  19.035  0.00  0.00    +0.000 C 
ATOM     12  C   UNL     1     -11.663  -2.120  20.055  0.00  0.00    +0.000 C 
ATOM     13  C   UNL     1     -11.231  -0.792  19.445  0.00  0.00    +0.000 C 
ATOM     14  C   UNL     1      -9.831  -0.892  18.850  0.00  0.00    +0.000 C 
ATOM     15  C   UNL     1      -9.738  -2.017  17.819  0.00  0.00    +0.000 C 
ATOM     16  H   UNL     1      -9.441  -3.668  19.156  0.00  0.00    +0.000 HD
ATOM     17  H   UNL     1     -11.863  -4.183  19.532  0.00  0.00    +0.000 HD
ATOM     18  H   UNL     1     -12.327  -3.081  18.249  0.00  0.00    +0.000 HD
ATOM     19  H   UNL     1     -11.024  -2.355  20.916  0.00  0.00    +0.000 HD
ATOM     20  H   UNL     1     -12.688  -2.039  20.429  0.00  0.00    +0.000 HD
ATOM     21  H   UNL     1     -11.256  -0.009  20.211  0.00  0.00    +0.000 HD
ATOM     22  H   UNL     1     -11.945  -0.499  18.665  0.00  0.00    +0.000 HD
ATOM     23  H   UNL     1      -9.105  -1.069  19.652  0.00  0.00    +0.000 HD
ATOM     24  H   UNL     1      -9.564   0.061  18.380  0.00  0.00    +0.000 HD
ATOM     25  H   UNL     1      -8.706  -2.088  17.452  0.00  0.00    +0.000 HD
ATOM     26  H   UNL     1     -10.358  -1.761  16.950  0.00  0.00    +0.000 HD
ENDBRANCH   6  10
BRANCH   7  27
ATOM     27  N   UNL     1     -11.054  -6.613  15.862  0.00  0.00    +0.000 N 
ATOM     28  H   UNL     1     -10.685  -5.928  15.193  0.00  0.00    +0.000 HD
ATOM     29  H   UNL     1     -11.988  -6.348  16.161  0.00  0.00    +0.000 HD
ENDBRANCH   7  27
BRANCH   1  30
ATOM     30  N   UNL     1     -10.213  -9.138  16.853  0.00  0.00    +0.000 N 
ATOM     31  H   UNL     1     -10.995  -8.910  16.240  0.00  0.00    +0.000 HD
BRANCH  30  36
ATOM     32  C   UNL     1      -8.742 -12.394  17.397  0.00  0.00    +0.000 A 
ATOM     33  C   UNL     1      -8.456 -12.828  16.104  0.00  0.00    +0.000 A 
ATOM     34  C   UNL     1      -8.711 -11.980  15.028  0.00  0.00    +0.000 A 
ATOM     35  C   UNL     1      -9.260 -10.719  15.258  0.00  0.00    +0.000 A 
ATOM     36  C   UNL     1      -9.520 -10.310  16.565  0.00  0.00    +0.000 A 
ATOM     37  N   UNL     1      -9.250 -11.163  17.564  0.00  0.00    +0.000 N 
ATOM     38  H   UNL     1      -8.050 -13.822  15.925  0.00  0.00    +0.000 HD
ATOM     39  H   UNL     1      -8.505 -12.310  14.011  0.00  0.00    +0.000 HD
ATOM     40  H   UNL     1      -9.501 -10.076  14.414  0.00  0.00    +0.000 HD
ATOM     41  H   UNL     1      -9.473 -10.813  18.502  0.00  0.00    +0.000 HD
BRANCH  32  42
ATOM     42  C   UNL     1      -8.558 -13.247  18.606  0.00  0.00    +0.000 C 
ATOM     43  H   UNL     1      -7.626 -13.822  18.556  0.00  0.00    +0.000 HD
ATOM     44  H   UNL     1      -9.389 -13.953  18.694  0.00  0.00    +0.000 HD
ATOM     45  H   UNL     1      -8.526 -12.625  19.504  0.00  0.00    +0.000 HD
ENDBRANCH  32  42
ENDBRANCH  30  36
ENDBRANCH   1  30
TORSDOF 5
ENDMDL
MODEL 9
REMARK VINA RESULT:    -9.053      2.637      7.863
REMARK INTER + INTRA:         -11.716
REMARK INTER:                 -11.082
REMARK INTRA:                  -0.634
REMARK UNBOUND:                -0.546
REMARK  Name = 
REMARK  5 active torsions:
REMARK  status: ('A' for Active; 'I' for Inactive)
REMARK    1  A    between atoms: C_1  and  C_2
REMARK    2  A    between atoms: C_6  and  N_7
REMARK    3  A    between atoms: N_7  and  C_8
REMARK    4  A    between atoms: N_13  and  C_14
REMARK    5  A    between atoms: C_20  and  N_21
REMARK                            x       y       z     vdW  Elec       q    Type
REMARK                         _______ _______ _______ _____ _____    ______ ____
ROOT
ATOM      1  C   UNL     1      -9.728  -5.902  17.885  0.00  0.00    +0.000 A 
ATOM      2  N   UNL     1     -10.971  -6.217  18.324  0.00  0.00    +0.000 NA
ATOM      3  C   UNL     1     -11.501  -7.331  17.790  0.00  0.00    +0.000 A 
ATOM      4  N   UNL     1     -10.873  -8.202  16.999  0.00  0.00    +0.000 NA
ATOM      5  C   UNL     1      -9.612  -7.909  16.648  0.00  0.00    +0.000 A 
ATOM      6  N   UNL     1      -8.840  -8.846  15.922  0.00  0.00    +0.000 N 
ATOM      7  C   UNL     1      -8.983  -6.724  17.040  0.00  0.00    +0.000 A 
ATOM      8  H   UNL     1     -12.535  -7.559  18.034  0.00  0.00    +0.000 HD
ATOM      9  H   UNL     1      -8.836  -8.554  14.946  0.00  0.00    +0.000 HD
ENDROOT
BRANCH   6  10
ATOM     10  C   UNL     1      -9.237 -10.253  16.104  0.00  0.00    +0.000 C 
ATOM     11  C   UNL     1      -8.741 -10.753  17.478  0.00  0.00    +0.000 C 
ATOM     12  C   UNL     1      -8.947 -12.250  17.669  0.00  0.00    +0.000 C 
ATOM     13  C   UNL     1      -8.299 -13.044  16.542  0.00  0.00    +0.000 C 
ATOM     14  C   UNL     1      -8.815 -12.587  15.182  0.00  0.00    +0.000 C 
ATOM     15  C   UNL     1      -8.605 -11.086  14.978  0.00  0.00    +0.000 C 
ATOM     16  H   UNL     1     -10.328 -10.364  16.033  0.00  0.00    +0.000 HD
ATOM     17  H   UNL     1      -9.254 -10.228  18.292  0.00  0.00    +0.000 HD
ATOM     18  H   UNL     1      -7.673 -10.519  17.591  0.00  0.00    +0.000 HD
ATOM     19  H   UNL     1     -10.022 -12.471  17.705  0.00  0.00    +0.000 HD
ATOM     20  H   UNL     1      -8.525 -12.560  18.630  0.00  0.00    +0.000 HD
ATOM     21  H   UNL     1      -8.503 -14.112  16.678  0.00  0.00    +0.000 HD
ATOM     22  H   UNL     1      -7.210 -12.919  16.585  0.00  0.00    +0.000 HD
ATOM     23  H   UNL     1      -9.882 -12.822  15.099  0.00  0.00    +0.000 HD
ATOM     24  H   UNL     1      -8.301 -13.141  14.390  0.00  0.00    +0.000 HD
ATOM     25  H   UNL     1      -9.033 -10.789  14.012  0.00  0.00    +0.000 HD
ATOM     26  H   UNL     1      -7.529 -10.878  14.916  0.00  0.00    +0.000 HD
ENDBRANCH   6  10
BRANCH   7  27
ATOM     27  N   UNL     1      -7.706  -6.360  16.549  0.00  0.00    +0.000 N 
ATOM     28  H   UNL     1      -7.746  -6.339  15.524  0.00  0.00    +0.000 HD
ATOM     29  H   UNL     1      -6.967  -6.982  16.862  0.00  0.00    +0.000 HD
ENDBRANCH   7  27
BRANCH   1  30
ATOM     30  N   UNL     1      -9.099  -4.761  18.438  0.00  0.00    +0.000 N 
ATOM     31  H   UNL     1      -8.094  -4.794  18.266  0.00  0.00    +0.000 HD
BRANCH  30  36
ATOM     32  C   UNL     1     -11.284  -1.993  17.647  0.00  0.00    +0.000 A 
ATOM     33  C   UNL     1     -11.141  -1.156  18.752  0.00  0.00    +0.000 A 
ATOM     34  C   UNL     1     -10.245  -1.505  19.760  0.00  0.00    +0.000 A 
ATOM     35  C   UNL     1      -9.515  -2.689  19.657  0.00  0.00    +0.000 A 
ATOM     36  C   UNL     1      -9.670  -3.495  18.530  0.00  0.00    +0.000 A 
ATOM     37  N   UNL     1     -10.542  -3.109  17.586  0.00  0.00    +0.000 N 
ATOM     38  H   UNL     1     -11.729  -0.244  18.843  0.00  0.00    +0.000 HD
ATOM     39  H   UNL     1     -10.133  -0.868  20.637  0.00  0.00    +0.000 HD
ATOM     40  H   UNL     1      -8.850  -2.983  20.466  0.00  0.00    +0.000 HD
ATOM     41  H   UNL     1     -10.622  -3.748  16.787  0.00  0.00    +0.000 HD
BRANCH  32  42
ATOM     42  C   UNL     1     -12.255  -1.736  16.545  0.00  0.00    +0.000 C 
ATOM     43  H   UNL     1     -11.771  -1.778  15.563  0.00  0.00    +0.000 HD
ATOM     44  H   UNL     1     -12.698  -0.743  16.664  0.00  0.00    +0.000 HD
ATOM     45  H   UNL     1     -13.051  -2.484  16.564  0.00  0.00    +0.000 HD
ENDBRANCH  32  42
ENDBRANCH  30  36
ENDBRANCH   1  30
TORSDOF 5
ENDMDL
