REMARK  Name = 
REMARK  6 active torsions:
REMARK  status: ('A' for Active; 'I' for Inactive)
REMARK    1  A    between atoms: C_1  and  O_2
REMARK    2  A    between atoms: O_2  and  C_3
REMARK    3  A    between atoms: C_8  and  N_9
REMARK    4  A    between atoms: N_9  and  C_10
REMARK    5  A    between atoms: N_15  and  C_16
REMARK    6  A    between atoms: C_26  and  N_27
REMARK                            x       y       z     vdW  Elec       q    Type
REMARK                         _______ _______ _______ _____ _____    ______ ____
ROOT
ATOM      1  C   UNL     1       0.013  -1.008  -1.621  0.00  0.00    +0.000 A 
ATOM      2  N   UNL     1      -1.301  -1.245  -1.409  0.00  0.00    +0.000 NA
ATOM      3  C   UNL     1      -1.899  -0.549  -0.436  0.00  0.00    +0.000 A 
ATOM      4  N   UNL     1      -1.286   0.362   0.325  0.00  0.00    +0.000 N 
ATOM      5  C   UNL     1       0.007   0.631   0.149  0.00  0.00    +0.000 A 
ATOM      6  N   UNL     1       0.619   1.570   0.996  0.00  0.00    +0.000 N 
ATOM      7  C   UNL     1       0.725  -0.044  -0.872  0.00  0.00    +0.000 A 
ATOM      8  H   UNL     1      -2.957  -0.725  -0.261  0.00  0.00    +0.000 HD
ATOM      9  H   UNL     1      -1.802   0.858   1.041  0.00  0.00    +0.000 HD
ATOM     10  H   UNL     1       1.197   2.236   0.485  0.00  0.00    +0.000 HD
ENDROOT
BRANCH   6  11
ATOM     11  C   UNL     1       0.194   2.032   2.263  0.00  0.00    +0.000 A 
ATOM     12  C   UNL     1      -0.354   1.167   3.219  0.00  0.00    +0.000 A 
ATOM     13  C   UNL     1      -0.754   1.650   4.471  0.00  0.00    +0.000 A 
ATOM     14  C   UNL     1      -0.613   3.001   4.785  0.00  0.00    +0.000 A 
ATOM     15  C   UNL     1      -0.113   3.875   3.831  0.00  0.00    +0.000 A 
ATOM     16  C   UNL     1       0.299   3.393   2.581  0.00  0.00    +0.000 A 
ATOM     17  O   UNL     1      -0.030   5.223   4.029  0.00  0.00    +0.000 OA
ATOM     18  C   UNL     1       0.052   5.562   5.413  0.00  0.00    +0.000 C 
ATOM     19  C   UNL     1      -0.880   4.765   6.320  0.00  0.00    +0.000 C 
ATOM     20  O   UNL     1      -0.965   3.366   6.048  0.00  0.00    +0.000 OA
ATOM     21  H   UNL     1      -0.421   0.095   3.045  0.00  0.00    +0.000 HD
ATOM     22  H   UNL     1      -1.158   0.969   5.218  0.00  0.00    +0.000 HD
ATOM     23  H   UNL     1       0.712   4.105   1.870  0.00  0.00    +0.000 HD
ATOM     24  H   UNL     1       1.096   5.454   5.732  0.00  0.00    +0.000 HD
ATOM     25  H   UNL     1      -0.197   6.626   5.503  0.00  0.00    +0.000 HD
ATOM     26  H   UNL     1      -1.895   5.177   6.289  0.00  0.00    +0.000 HD
ATOM     27  H   UNL     1      -0.528   4.868   7.353  0.00  0.00    +0.000 HD
ENDBRANCH   6  11
BRANCH   7  28
ATOM     28  N   UNL     1       2.096   0.135  -1.047  0.00  0.00    +0.000 N 
ATOM     29  H   UNL     1       2.655   0.764  -0.484  0.00  0.00    +0.000 HD
ATOM     30  H   UNL     1       2.548  -0.301  -1.849  0.00  0.00    +0.000 HD
ENDBRANCH   7  28
BRANCH   1  31
ATOM     31  N   UNL     1       0.705  -1.768  -2.596  0.00  0.00    +0.000 N 
ATOM     32  H   UNL     1       1.090  -1.209  -3.348  0.00  0.00    +0.000 HD
BRANCH  31  38
ATOM     33  C   UNL     1       0.547  -3.441  -4.402  0.00  0.00    +0.000 A 
ATOM     34  C   UNL     1       0.172  -4.719  -4.831  0.00  0.00    +0.000 A 
ATOM     35  C   UNL     1      -0.403  -5.620  -3.934  0.00  0.00    +0.000 A 
ATOM     36  C   UNL     1      -0.590  -5.269  -2.613  0.00  0.00    +0.000 A 
ATOM     37  C   UNL     1      -0.213  -4.000  -2.179  0.00  0.00    +0.000 A 
ATOM     38  C   UNL     1       0.331  -3.055  -3.066  0.00  0.00    +0.000 A 
ATOM     39  H   UNL     1       0.323  -5.058  -5.851  0.00  0.00    +0.000 HD
ATOM     40  H   UNL     1      -0.700  -6.613  -4.284  0.00  0.00    +0.000 HD
ATOM     41  H   UNL     1      -1.014  -5.981  -1.907  0.00  0.00    +0.000 HD
ATOM     42  H   UNL     1      -0.346  -3.755  -1.124  0.00  0.00    +0.000 HD
BRANCH  33  43
ATOM     43  O   UNL     1       1.136  -2.498  -5.220  0.00  0.00    +0.000 OA
BRANCH  43  44
ATOM     44  C   UNL     1       0.994  -2.730  -6.625  0.00  0.00    +0.000 C 
ATOM     45  H   UNL     1       1.448  -1.887  -7.157  0.00  0.00    +0.000 HD
ATOM     46  H   UNL     1      -0.066  -2.770  -6.901  0.00  0.00    +0.000 HD
ATOM     47  H   UNL     1       1.521  -3.635  -6.945  0.00  0.00    +0.000 HD
ENDBRANCH  43  44
ENDBRANCH  33  43
ENDBRANCH  31  38
ENDBRANCH   1  31
TORSDOF 6
