REMARK  Name = 
REMARK  4 active torsions:
REMARK  status: ('A' for Active; 'I' for Inactive)
REMARK    1  A    between atoms: C_1  and  C_2
REMARK    2  A    between atoms: C_3  and  C_4
REMARK    3  A    between atoms: N_6  and  C_7
REMARK    4  A    between atoms: C_13  and  C_14
REMARK                            x       y       z     vdW  Elec       q    Type
REMARK                         _______ _______ _______ _____ _____    ______ ____
ROOT
ATOM      1  C   UNL     1      -1.070   2.760   0.347  0.00  0.00    +0.000 C 
ATOM      2  C   UNL     1      -0.535   1.507   0.350  0.00  0.00    +0.000 C 
ATOM      3  C   UNL     1       0.988   1.322   0.193  0.00  0.00    +0.000 C 
ATOM      4  N   UNL     1       1.691   2.589  -0.026  0.00  0.00    +0.000 N 
ATOM      5  N   UNL     1       3.027   2.719  -0.132  0.00  0.00    +0.000 NA
ATOM      6  C   UNL     1       3.147   4.049  -0.215  0.00  0.00    +0.000 A 
ATOM      7  N   UNL     1       1.978   4.755  -0.116  0.00  0.00    +0.000 NA
ATOM      8  C   UNL     1       1.082   3.812   0.022  0.00  0.00    +0.000 A 
ATOM      9  N   UNL     1      -0.244   3.873   0.208  0.00  0.00    +0.000 N 
ATOM     10  H   UNL     1       1.336   1.002   1.183  0.00  0.00    +0.000 HD
ATOM     11  H   UNL     1       4.114   4.518  -0.341  0.00  0.00    +0.000 HD
ATOM     12  H   UNL     1      -0.683   4.790   0.242  0.00  0.00    +0.000 HD
ENDROOT
BRANCH   3  13
ATOM     13  C   UNL     1       1.404   0.309  -0.878  0.00  0.00    +0.000 A 
ATOM     14  C   UNL     1       0.680   0.222  -2.086  0.00  0.00    +0.000 A 
ATOM     15  C   UNL     1       1.002  -0.730  -3.053  0.00  0.00    +0.000 A 
ATOM     16  C   UNL     1       2.079  -1.585  -2.857  0.00  0.00    +0.000 A 
ATOM     17  C   UNL     1       2.835  -1.494  -1.691  0.00  0.00    +0.000 A 
ATOM     18  C   UNL     1       2.496  -0.564  -0.703  0.00  0.00    +0.000 A 
ATOM     19 BR   UNL     1       3.562  -0.597   0.875  0.00  0.00    +0.000 Br
ATOM     20  H   UNL     1      -0.169   0.876  -2.280  0.00  0.00    +0.000 HD
ATOM     21  H   UNL     1       0.406  -0.806  -3.960  0.00  0.00    +0.000 HD
ATOM     22  H   UNL     1       2.334  -2.325  -3.613  0.00  0.00    +0.000 HD
ATOM     23  H   UNL     1       3.681  -2.163  -1.557  0.00  0.00    +0.000 HD
ENDBRANCH   3  13
BRANCH   1  24
ATOM     24  C   UNL     1      -2.530   3.134   0.495  0.00  0.00    +0.000 C 
ATOM     25  H   UNL     1      -3.222   2.304   0.628  0.00  0.00    +0.000 HD
ATOM     26  H   UNL     1      -2.857   3.696  -0.388  0.00  0.00    +0.000 HD
ATOM     27  H   UNL     1      -2.656   3.785   1.368  0.00  0.00    +0.000 HD
ENDBRANCH   1  24
BRANCH   2  28
ATOM     28  C   UNL     1      -1.385   0.260   0.455  0.00  0.00    +0.000 C 
ATOM     29  O   UNL     1      -2.542   0.270   0.050  0.00  0.00    +0.000 OA
ATOM     30  N   UNL     1      -0.734  -0.856   0.951  0.00  0.00    +0.000 N 
ATOM     31  H   UNL     1       0.241  -0.788   1.198  0.00  0.00    +0.000 HD
BRANCH  30  32
ATOM     32  C   UNL     1      -1.257  -2.159   1.119  0.00  0.00    +0.000 A 
ATOM     33  C   UNL     1      -2.597  -2.500   0.935  0.00  0.00    +0.000 A 
ATOM     34  C   UNL     1      -3.035  -3.806   1.183  0.00  0.00    +0.000 A 
ATOM     35  C   UNL     1      -2.136  -4.783   1.604  0.00  0.00    +0.000 A 
ATOM     36  C   UNL     1      -0.791  -4.460   1.764  0.00  0.00    +0.000 A 
ATOM     37  C   UNL     1      -0.355  -3.156   1.522  0.00  0.00    +0.000 A 
ATOM     38  H   UNL     1      -3.336  -1.772   0.616  0.00  0.00    +0.000 HD
ATOM     39  H   UNL     1      -4.086  -4.054   1.053  0.00  0.00    +0.000 HD
ATOM     40  H   UNL     1      -2.483  -5.793   1.806  0.00  0.00    +0.000 HD
ATOM     41  H   UNL     1      -0.084  -5.221   2.081  0.00  0.00    +0.000 HD
ATOM     42  H   UNL     1       0.701  -2.935   1.651  0.00  0.00    +0.000 HD
ENDBRANCH  30  32
ENDBRANCH   2  28
TORSDOF 4
