REMARK  Name = 
REMARK  9 active torsions:
REMARK  status: ('A' for Active; 'I' for Inactive)
REMARK    1  A    between atoms: C_1  and  C_2
REMARK    2  A    between atoms: C_6  and  C_7
REMARK    3  A    between atoms: C_7  and  C_8
REMARK    4  A    between atoms: C_7  and  N_9
REMARK    5  A    between atoms: N_9  and  C_10
REMARK    6  A    between atoms: C_13  and  N_14
REMARK    7  A    between atoms: C_16  and  C_17
REMARK    8  A    between atoms: C_19  and  C_20
REMARK    9  A    between atoms: C_29  and  C_30
REMARK                            x       y       z     vdW  Elec       q    Type
REMARK                         _______ _______ _______ _____ _____    ______ ____
ROOT
ATOM      1  C   UNL     1       0.373  -0.139   0.519  0.00  0.00    +0.000 A 
ATOM      2  C   UNL     1       1.265  -0.568  -0.470  0.00  0.00    +0.000 A 
ATOM      3  C   UNL     1       2.568  -0.062  -0.550  0.00  0.00    +0.000 A 
ATOM      4  C   UNL     1       3.068   0.848   0.388  0.00  0.00    +0.000 A 
ATOM      5  C   UNL     1       2.178   1.222   1.412  0.00  0.00    +0.000 A 
ATOM      6  F   UNL     1       2.554   2.122   2.337  0.00  0.00    +0.000 F 
ATOM      7  C   UNL     1       0.866   0.733   1.489  0.00  0.00    +0.000 A 
ATOM      8  H   UNL     1       0.982  -1.303  -1.217  0.00  0.00    +0.000 HD
ATOM      9  H   UNL     1       3.208  -0.430  -1.348  0.00  0.00    +0.000 HD
ATOM     10  H   UNL     1       0.230   1.078   2.299  0.00  0.00    +0.000 HD
ENDROOT
BRANCH   4  11
ATOM     11  N   UNL     1       4.368   1.297   0.289  0.00  0.00    +0.000 N 
ATOM     12  C   UNL     1       5.193   1.614   1.461  0.00  0.00    +0.000 C 
ATOM     13  C   UNL     1       5.675   3.077   1.396  0.00  0.00    +0.000 C 
ATOM     14  O   UNL     1       6.339   3.352   0.142  0.00  0.00    +0.000 OA
ATOM     15  C   UNL     1       5.445   3.117  -0.965  0.00  0.00    +0.000 C 
ATOM     16  C   UNL     1       4.984   1.643  -1.000  0.00  0.00    +0.000 C 
ATOM     17  H   UNL     1       6.062   0.944   1.434  0.00  0.00    +0.000 HD
ATOM     18  H   UNL     1       4.687   1.413   2.411  0.00  0.00    +0.000 HD
ATOM     19  H   UNL     1       4.824   3.763   1.493  0.00  0.00    +0.000 HD
ATOM     20  H   UNL     1       4.577   3.779  -0.852  0.00  0.00    +0.000 HD
ATOM     21  H   UNL     1       5.847   0.983  -1.156  0.00  0.00    +0.000 HD
ATOM     22  H   UNL     1       4.301   1.505  -1.846  0.00  0.00    +0.000 HD
BRANCH  13  23
ATOM     23  C   UNL     1       6.670   3.354   2.515  0.00  0.00    +0.000 C 
ATOM     24  H   UNL     1       7.557   2.718   2.416  0.00  0.00    +0.000 HD
ATOM     25  H   UNL     1       6.220   3.176   3.497  0.00  0.00    +0.000 HD
ATOM     26  H   UNL     1       7.019   4.391   2.471  0.00  0.00    +0.000 HD
ENDBRANCH  13  23
BRANCH  15  27
ATOM     27  C   UNL     1       6.176   3.485  -2.249  0.00  0.00    +0.000 C 
ATOM     28  H   UNL     1       7.076   2.874  -2.379  0.00  0.00    +0.000 HD
ATOM     29  H   UNL     1       6.503   4.529  -2.218  0.00  0.00    +0.000 HD
ATOM     30  H   UNL     1       5.531   3.349  -3.124  0.00  0.00    +0.000 HD
ENDBRANCH  15  27
ENDBRANCH   4  11
BRANCH   1  31
ATOM     31  N   UNL     1      -0.947  -0.637   0.645  0.00  0.00    +0.000 N 
ATOM     32  H   UNL     1      -0.900  -1.423   1.301  0.00  0.00    +0.000 HD
BRANCH  31  33
ATOM     33  C   UNL     1      -1.599  -1.078  -0.617  0.00  0.00    +0.000 C 
ATOM     34  H   UNL     1      -1.032  -1.894  -1.081  0.00  0.00    +0.000 HD
BRANCH  33  39
ATOM     35  C   UNL     1      -7.002  -3.912  -0.997  0.00  0.00    +0.000 A 
ATOM     36  S   UNL     1      -5.535  -4.077  -1.858  0.00  0.00    +0.000 S 
ATOM     37  C   UNL     1      -4.750  -2.926  -0.884  0.00  0.00    +0.000 A 
ATOM     38  N   UNL     1      -3.460  -2.579  -1.122  0.00  0.00    +0.000 NA
ATOM     39  C   UNL     1      -2.996  -1.639  -0.353  0.00  0.00    +0.000 A 
ATOM     40  N   UNL     1      -3.725  -1.043   0.649  0.00  0.00    +0.000 N 
ATOM     41  C   UNL     1      -5.020  -1.390   0.963  0.00  0.00    +0.000 A 
ATOM     42  O   UNL     1      -5.619  -0.863   1.893  0.00  0.00    +0.000 OA
ATOM     43  C   UNL     1      -5.584  -2.413   0.089  0.00  0.00    +0.000 A 
ATOM     44  C   UNL     1      -6.903  -2.998   0.046  0.00  0.00    +0.000 A 
ATOM     45  H   UNL     1      -3.285  -0.327   1.215  0.00  0.00    +0.000 HD
BRANCH  35  46
ATOM     46  C   UNL     1      -8.194  -4.714  -1.413  0.00  0.00    +0.000 C 
ATOM     47  H   UNL     1      -7.997  -5.335  -2.294  0.00  0.00    +0.000 HD
ATOM     48  H   UNL     1      -9.030  -4.050  -1.657  0.00  0.00    +0.000 HD
ATOM     49  H   UNL     1      -8.506  -5.377  -0.600  0.00  0.00    +0.000 HD
ENDBRANCH  35  46
BRANCH  44  50
ATOM     50  C   UNL     1      -8.037  -2.678   0.967  0.00  0.00    +0.000 C 
ATOM     51  H   UNL     1      -7.775  -1.937   1.723  0.00  0.00    +0.000 HD
ATOM     52  H   UNL     1      -8.360  -3.584   1.491  0.00  0.00    +0.000 HD
ATOM     53  H   UNL     1      -8.888  -2.287   0.399  0.00  0.00    +0.000 HD
ENDBRANCH  44  50
ENDBRANCH  33  39
BRANCH  33  54
ATOM     54  C   UNL     1      -1.767   0.096  -1.586  0.00  0.00    +0.000 C 
ATOM     55  H   UNL     1      -2.183   0.974  -1.080  0.00  0.00    +0.000 HD
ATOM     56  H   UNL     1      -2.438  -0.165  -2.411  0.00  0.00    +0.000 HD
ATOM     57  H   UNL     1      -0.811   0.392  -2.029  0.00  0.00    +0.000 HD
ENDBRANCH  33  54
ENDBRANCH  31  33
ENDBRANCH   1  31
TORSDOF 9
