
 OpenBabel01112423133D

 54 57  0  0  1  0  0  0  0  0999 V2000
   -5.4236   -5.4617   -0.1071 C   0  0  0  0  0  0  0  0  0  0  0  0
   -4.9107   -4.0528   -0.1410 C   0  0  0  0  0  0  0  0  0  0  0  0
   -4.1932   -3.5896   -1.2444 C   0  0  0  0  0  0  0  0  0  0  0  0
   -3.6706   -2.2968   -1.2536 C   0  0  0  0  0  0  0  0  0  0  0  0
   -3.8482   -1.4297   -0.1606 C   0  0  0  0  0  0  0  0  0  0  0  0
   -3.2119   -0.0390   -0.1570 C   0  0  1  0  0  0  0  0  0  0  0  0
   -1.7563   -0.1826   -0.1617 N   0  0  0  0  0  0  0  0  0  0  0  0
   -0.8960    0.6313    0.5378 C   0  0  0  0  0  0  0  0  0  0  0  0
   -1.2754    1.5069    1.3098 O   0  0  0  0  0  0  0  0  0  0  0  0
    0.5885    0.3159    0.3117 C   0  0  0  0  0  0  0  0  0  0  0  0
    1.1053   -0.5684    1.3332 N   0  0  0  0  0  0  0  0  0  0  0  0
    0.9435   -1.9207    1.3166 C   0  0  0  0  0  0  0  0  0  0  0  0
    0.4000   -2.5805    0.4468 O   0  0  0  0  0  0  0  0  0  0  0  0
    1.5760   -2.4554    2.4199 N   0  0  0  0  0  0  0  0  0  0  0  0
    2.4405   -1.4885    3.0534 C   0  0  0  0  0  0  0  0  0  0  0  0
    3.9184   -1.8443    2.8366 C   0  0  0  0  0  0  0  0  0  0  0  0
    4.5984   -1.5187    4.1601 C   0  0  0  0  0  0  0  0  0  0  0  0
    3.5335   -1.8392    5.1952 C   0  0  0  0  0  0  0  0  0  0  0  0
    2.2382   -1.3367    4.5633 C   0  0  0  0  0  0  0  0  0  0  0  0
    2.0265   -0.2228    2.2800 C   0  0  0  0  0  0  0  0  0  0  0  0
    2.5173    0.8902    2.4423 O   0  0  0  0  0  0  0  0  0  0  0  0
   -3.7131    0.7999   -1.3362 C   0  0  0  0  0  0  0  0  0  0  0  0
   -3.0195    0.8621   -2.5583 C   0  0  0  0  0  0  0  0  0  0  0  0
   -3.5615    1.5260   -3.6601 C   0  0  0  0  0  0  0  0  0  0  0  0
   -4.8015    2.1493   -3.5575 C   0  0  0  0  0  0  0  0  0  0  0  0
   -5.4956    2.1187   -2.3500 C   0  0  0  0  0  0  0  0  0  0  0  0
   -4.9580    1.4481   -1.2473 C   0  0  0  0  0  0  0  0  0  0  0  0
   -4.6028   -1.8873    0.9299 C   0  0  0  0  0  0  0  0  0  0  0  0
   -5.1311   -3.1859    0.9365 C   0  0  0  0  0  0  0  0  0  0  0  0
   -5.1005   -6.0246   -0.9900 H   0  0  0  0  0  0  0  0  0  0  0  0
   -6.5169   -5.4727   -0.0801 H   0  0  0  0  0  0  0  0  0  0  0  0
   -5.0317   -5.9821    0.7733 H   0  0  0  0  0  0  0  0  0  0  0  0
   -4.0205   -4.2334   -2.1034 H   0  0  0  0  0  0  0  0  0  0  0  0
   -3.1129   -1.9745   -2.1286 H   0  0  0  0  0  0  0  0  0  0  0  0
   -3.4882    0.4884    0.7663 H   0  0  0  0  0  0  0  0  0  0  0  0
   -1.3748   -0.9327   -0.7224 H   0  0  0  0  0  0  0  0  0  0  0  0
    1.1427    1.2607    0.3137 H   0  0  0  0  0  0  0  0  0  0  0  0
    0.7236   -0.1526   -0.6694 H   0  0  0  0  0  0  0  0  0  0  0  0
    1.6752   -3.4600    2.5005 H   0  0  0  0  0  0  0  0  0  0  0  0
    4.3832   -1.3050    2.0057 H   0  0  0  0  0  0  0  0  0  0  0  0
    4.0347   -2.9183    2.6373 H   0  0  0  0  0  0  0  0  0  0  0  0
    4.8639   -0.4561    4.1987 H   0  0  0  0  0  0  0  0  0  0  0  0
    5.5105   -2.1045    4.3111 H   0  0  0  0  0  0  0  0  0  0  0  0
    3.7377   -1.3613    6.1582 H   0  0  0  0  0  0  0  0  0  0  0  0
    3.4764   -2.9218    5.3584 H   0  0  0  0  0  0  0  0  0  0  0  0
    2.0977   -0.2833    4.8370 H   0  0  0  0  0  0  0  0  0  0  0  0
    1.3750   -1.8913    4.9445 H   0  0  0  0  0  0  0  0  0  0  0  0
   -2.0601    0.3672   -2.6790 H   0  0  0  0  0  0  0  0  0  0  0  0
   -3.0209    1.5417   -4.6030 H   0  0  0  0  0  0  0  0  0  0  0  0
   -5.2298    2.6516   -4.4208 H   0  0  0  0  0  0  0  0  0  0  0  0
   -6.4660    2.6025   -2.2712 H   0  0  0  0  0  0  0  0  0  0  0  0
   -5.5295    1.4137   -0.3216 H   0  0  0  0  0  0  0  0  0  0  0  0
   -4.7786   -1.2445    1.7901 H   0  0  0  0  0  0  0  0  0  0  0  0
   -5.7038   -3.5242    1.7977 H   0  0  0  0  0  0  0  0  0  0  0  0
  1  2  1  0  0  0  0
  1 30  1  0  0  0  0
  1 31  1  0  0  0  0
  1 32  1  0  0  0  0
  2  3  1  0  0  0  0
  2 29  2  0  0  0  0
  3  4  2  0  0  0  0
  3 33  1  0  0  0  0
  4  5  1  0  0  0  0
  4 34  1  0  0  0  0
  5 28  2  0  0  0  0
  6 22  1  0  0  0  0
  6  7  1  0  0  0  0
  6  5  1  0  0  0  0
  6 35  1  1  0  0  0
  7  8  1  0  0  0  0
  7 36  1  0  0  0  0
  8  9  2  0  0  0  0
  8 10  1  0  0  0  0
 10 11  1  0  0  0  0
 10 37  1  0  0  0  0
 10 38  1  0  0  0  0
 11 12  1  0  0  0  0
 11 20  1  0  0  0  0
 12 13  2  0  0  0  0
 12 14  1  0  0  0  0
 14 15  1  0  0  0  0
 14 39  1  0  0  0  0
 15 16  1  0  0  0  0
 15 19  1  0  0  0  0
 15 20  1  0  0  0  0
 16 17  1  0  0  0  0
 16 40  1  0  0  0  0
 16 41  1  0  0  0  0
 17 18  1  0  0  0  0
 17 42  1  0  0  0  0
 17 43  1  0  0  0  0
 18 19  1  0  0  0  0
 18 44  1  0  0  0  0
 18 45  1  0  0  0  0
 19 46  1  0  0  0  0
 19 47  1  0  0  0  0
 20 21  2  0  0  0  0
 22 23  1  0  0  0  0
 22 27  2  0  0  0  0
 23 24  2  0  0  0  0
 23 48  1  0  0  0  0
 24 25  1  0  0  0  0
 24 49  1  0  0  0  0
 25 26  2  0  0  0  0
 25 50  1  0  0  0  0
 26 27  1  0  0  0  0
 26 51  1  0  0  0  0
 27 52  1  0  0  0  0
 28 29  1  0  0  0  0
 28 53  1  0  0  0  0
 29 54  1  0  0  0  0
M  END
$$$$
