
 OpenBabel01112423123D

 56 59  0  0  1  0  0  0  0  0999 V2000
    2.5105   -1.9544    6.2290 O   0  0  0  0  0  0  0  0  0  0  0  0
    1.4916   -2.3674    5.6835 C   0  0  0  0  0  0  0  0  0  0  0  0
    1.5195   -3.3312    4.7009 N   0  0  0  0  0  0  0  0  0  0  0  0
    2.7953   -3.8148    4.2046 C   0  0  0  0  0  0  0  0  0  0  0  0
    3.4795   -4.8370    5.1270 C   0  0  1  0  0  0  0  0  0  0  0  0
    2.6975   -6.1346    5.2810 C   0  0  0  0  0  0  0  0  0  0  0  0
    3.1781   -6.9474    4.1055 C   0  0  0  0  0  0  0  0  0  0  0  0
    4.6319   -6.5423    4.0085 C   0  0  0  0  0  0  0  0  0  0  0  0
    4.7383   -5.2105    4.5261 O   0  0  0  0  0  0  0  0  0  0  0  0
    0.1643   -1.7879    6.0471 C   0  0  0  0  0  0  0  0  0  0  0  0
    0.2072   -0.6178    6.8188 C   0  0  0  0  0  0  0  0  0  0  0  0
   -0.9653    0.0146    7.2078 C   0  0  0  0  0  0  0  0  0  0  0  0
   -2.1965   -0.4875    6.7901 C   0  0  0  0  0  0  0  0  0  0  0  0
   -3.3203    0.2407    7.1974 N   0  0  0  0  0  0  0  0  0  0  0  0
   -4.4239    0.4739    6.4082 C   0  0  0  0  0  0  0  0  0  0  0  0
   -4.3884    0.2545    5.1949 O   0  0  0  0  0  0  0  0  0  0  0  0
   -5.5499    0.9858    7.1117 N   0  0  0  0  0  0  0  0  0  0  0  0
   -5.5008    1.1883    8.5961 C   0  0  0  0  0  0  0  0  0  0  0  0
   -5.9997    2.5187    9.1694 C   0  0  0  0  0  0  0  0  0  0  0  0
   -7.5083    2.6492    9.1797 C   0  0  0  0  0  0  0  0  0  0  0  0
   -8.0220    2.6357    7.7635 C   0  0  0  0  0  0  0  0  0  0  0  0
   -8.0247    1.2511    7.1811 C   0  0  0  0  0  0  0  0  0  0  0  0
   -9.2380    0.5504    7.1350 C   0  0  0  0  0  0  0  0  0  0  0  0
   -9.3860   -0.5403    6.2901 C   0  0  0  0  0  0  0  0  0  0  0  0
   -8.3468   -0.8735    5.4361 C   0  0  0  0  0  0  0  0  0  0  0  0
   -7.1007   -0.2616    5.5869 C   0  0  0  0  0  0  0  0  0  0  0  0
   -6.8820    0.7087    6.5780 C   0  0  0  0  0  0  0  0  0  0  0  0
   -2.2585   -1.6707    6.0442 C   0  0  0  0  0  0  0  0  0  0  0  0
   -1.0666   -2.3263    5.6885 C   0  0  0  0  0  0  0  0  0  0  0  0
    0.6843   -3.5875    4.1967 H   0  0  0  0  0  0  0  0  0  0  0  0
    3.4636   -2.9568    4.0632 H   0  0  0  0  0  0  0  0  0  0  0  0
    2.6246   -4.2335    3.2074 H   0  0  0  0  0  0  0  0  0  0  0  0
    3.6818   -4.3894    6.1064 H   0  0  0  0  0  0  0  0  0  0  0  0
    1.6123   -6.0063    5.3074 H   0  0  0  0  0  0  0  0  0  0  0  0
    2.9983   -6.6347    6.2099 H   0  0  0  0  0  0  0  0  0  0  0  0
    2.6427   -6.6482    3.1973 H   0  0  0  0  0  0  0  0  0  0  0  0
    3.0461   -8.0251    4.2340 H   0  0  0  0  0  0  0  0  0  0  0  0
    5.0036   -6.5636    2.9801 H   0  0  0  0  0  0  0  0  0  0  0  0
    5.2676   -7.1901    4.6221 H   0  0  0  0  0  0  0  0  0  0  0  0
    1.1598   -0.1781    7.1125 H   0  0  0  0  0  0  0  0  0  0  0  0
   -0.9007    0.9222    7.7952 H   0  0  0  0  0  0  0  0  0  0  0  0
   -3.1056    1.0036    7.8162 H   0  0  0  0  0  0  0  0  0  0  0  0
   -4.4776    1.1265    8.9643 H   0  0  0  0  0  0  0  0  0  0  0  0
   -6.0094    0.3373    9.0675 H   0  0  0  0  0  0  0  0  0  0  0  0
   -5.6621    2.5918   10.2096 H   0  0  0  0  0  0  0  0  0  0  0  0
   -5.5446    3.3617    8.6345 H   0  0  0  0  0  0  0  0  0  0  0  0
   -7.7853    3.5968    9.6565 H   0  0  0  0  0  0  0  0  0  0  0  0
   -7.9650    1.8463    9.7721 H   0  0  0  0  0  0  0  0  0  0  0  0
   -7.4216    3.2993    7.1219 H   0  0  0  0  0  0  0  0  0  0  0  0
   -9.0370    3.0531    7.7242 H   0  0  0  0  0  0  0  0  0  0  0  0
  -10.0793    0.8761    7.7409 H   0  0  0  0  0  0  0  0  0  0  0  0
  -10.3216   -1.0883    6.2581 H   0  0  0  0  0  0  0  0  0  0  0  0
   -8.4769   -1.6481    4.6859 H   0  0  0  0  0  0  0  0  0  0  0  0
   -6.3138   -0.6281    4.9378 H   0  0  0  0  0  0  0  0  0  0  0  0
   -3.2166   -2.0937    5.7597 H   0  0  0  0  0  0  0  0  0  0  0  0
   -1.1490   -3.2611    5.1307 H   0  0  0  0  0  0  0  0  0  0  0  0
  1  2  2  0  0  0  0
  2  3  1  0  0  0  0
  2 10  1  0  0  0  0
  3  4  1  0  0  0  0
  3 30  1  0  0  0  0
  4 31  1  0  0  0  0
  4 32  1  0  0  0  0
  5  6  1  0  0  0  0
  5  9  1  0  0  0  0
  5  4  1  0  0  0  0
  5 33  1  1  0  0  0
  6  7  1  0  0  0  0
  6 34  1  0  0  0  0
  6 35  1  0  0  0  0
  7  8  1  0  0  0  0
  7 36  1  0  0  0  0
  7 37  1  0  0  0  0
  8  9  1  0  0  0  0
  8 38  1  0  0  0  0
  8 39  1  0  0  0  0
 10 11  1  0  0  0  0
 10 29  2  0  0  0  0
 11 12  2  0  0  0  0
 11 40  1  0  0  0  0
 12 13  1  0  0  0  0
 12 41  1  0  0  0  0
 13 14  1  0  0  0  0
 13 28  2  0  0  0  0
 14 15  1  0  0  0  0
 14 42  1  0  0  0  0
 15 16  2  0  0  0  0
 15 17  1  0  0  0  0
 17 18  1  0  0  0  0
 17 27  1  0  0  0  0
 18 19  1  0  0  0  0
 18 43  1  0  0  0  0
 18 44  1  0  0  0  0
 19 20  1  0  0  0  0
 19 45  1  0  0  0  0
 19 46  1  0  0  0  0
 20 21  1  0  0  0  0
 20 47  1  0  0  0  0
 20 48  1  0  0  0  0
 21 22  1  0  0  0  0
 21 49  1  0  0  0  0
 21 50  1  0  0  0  0
 22 23  1  0  0  0  0
 22 27  2  0  0  0  0
 23 24  2  0  0  0  0
 23 51  1  0  0  0  0
 24 25  1  0  0  0  0
 24 52  1  0  0  0  0
 25 26  2  0  0  0  0
 25 53  1  0  0  0  0
 26 27  1  0  0  0  0
 26 54  1  0  0  0  0
 28 29  1  0  0  0  0
 28 55  1  0  0  0  0
 29 56  1  0  0  0  0
M  END
$$$$
