MODEL 1
REMARK VINA RESULT:   -10.327      0.000      0.000
REMARK INTER + INTRA:         -14.283
REMARK INTER:                 -14.251
REMARK INTRA:                  -0.032
REMARK UNBOUND:                -0.032
REMARK  Name = 
REMARK  9 active torsions:
REMARK  status: ('A' for Active; 'I' for Inactive)
REMARK    1  A    between atoms: C_1  and  C_2
REMARK    2  A    between atoms: C_6  and  C_7
REMARK    3  A    between atoms: C_7  and  C_8
REMARK    4  A    between atoms: C_7  and  N_9
REMARK    5  A    between atoms: N_9  and  C_10
REMARK    6  A    between atoms: C_13  and  N_14
REMARK    7  A    between atoms: C_16  and  C_17
REMARK    8  A    between atoms: C_19  and  C_20
REMARK    9  A    between atoms: C_29  and  C_30
REMARK                            x       y       z     vdW  Elec       q    Type
REMARK                         _______ _______ _______ _____ _____    ______ ____
ROOT
ATOM      1  C   UNL     1      -8.503  -4.742  18.882  0.00  0.00    +0.000 A 
ATOM      2  C   UNL     1      -9.315  -3.603  18.910  0.00  0.00    +0.000 A 
ATOM      3  C   UNL     1      -9.322  -2.736  20.009  0.00  0.00    +0.000 A 
ATOM      4  C   UNL     1      -8.474  -2.924  21.106  0.00  0.00    +0.000 A 
ATOM      5  C   UNL     1      -7.618  -4.039  21.034  0.00  0.00    +0.000 A 
ATOM      6  F   UNL     1      -6.795  -4.326  22.057  0.00  0.00    +0.000 F 
ATOM      7  C   UNL     1      -7.618  -4.922  19.945  0.00  0.00    +0.000 A 
ATOM      8  H   UNL     1      -9.977  -3.350  18.088  0.00  0.00    +0.000 HD
ATOM      9  H   UNL     1      -9.983  -1.874  19.973  0.00  0.00    +0.000 HD
ATOM     10  H   UNL     1      -6.942  -5.771  19.965  0.00  0.00    +0.000 HD
ENDROOT
BRANCH   4  11
ATOM     11  N   UNL     1      -8.491  -2.027  22.154  0.00  0.00    +0.000 N 
ATOM     12  C   UNL     1      -8.252  -2.425  23.547  0.00  0.00    +0.000 C 
ATOM     13  C   UNL     1      -9.457  -2.038  24.427  0.00  0.00    +0.000 C 
ATOM     14  O   UNL     1      -9.780  -0.636  24.283  0.00  0.00    +0.000 OA
ATOM     15  C   UNL     1     -10.101  -0.331  22.911  0.00  0.00    +0.000 C 
ATOM     16  C   UNL     1      -8.902  -0.627  21.983  0.00  0.00    +0.000 C 
ATOM     17  H   UNL     1      -7.363  -1.880  23.889  0.00  0.00    +0.000 HD
ATOM     18  H   UNL     1      -8.015  -3.488  23.657  0.00  0.00    +0.000 HD
ATOM     19  H   UNL     1     -10.340  -2.626  24.145  0.00  0.00    +0.000 HD
ATOM     20  H   UNL     1     -10.964  -0.942  22.616  0.00  0.00    +0.000 HD
ATOM     21  H   UNL     1      -8.053   0.016  22.250  0.00  0.00    +0.000 HD
ATOM     22  H   UNL     1      -9.186  -0.392  20.951  0.00  0.00    +0.000 HD
BRANCH  13  23
ATOM     23  C   UNL     1      -9.139  -2.289  25.895  0.00  0.00    +0.000 C 
ATOM     24  H   UNL     1     -10.055  -2.304  26.497  0.00  0.00    +0.000 HD
ATOM     25  H   UNL     1      -8.472  -1.517  26.293  0.00  0.00    +0.000 HD
ATOM     26  H   UNL     1      -8.661  -3.266  26.023  0.00  0.00    +0.000 HD
ENDBRANCH  13  23
BRANCH  15  27
ATOM     27  C   UNL     1     -10.495   1.138  22.833  0.00  0.00    +0.000 C 
ATOM     28  H   UNL     1      -9.647   1.757  22.522  0.00  0.00    +0.000 HD
ATOM     29  H   UNL     1     -10.810   1.502  23.816  0.00  0.00    +0.000 HD
ATOM     30  H   UNL     1     -11.318   1.290  22.126  0.00  0.00    +0.000 HD
ENDBRANCH  15  27
ENDBRANCH   4  11
BRANCH   1  31
ATOM     31  N   UNL     1      -8.454  -5.635  17.784  0.00  0.00    +0.000 N 
ATOM     32  H   UNL     1      -8.300  -5.062  16.949  0.00  0.00    +0.000 HD
BRANCH  31  33
ATOM     33  C   UNL     1      -9.655  -6.490  17.588  0.00  0.00    +0.000 C 
ATOM     34  H   UNL     1     -10.146  -6.256  16.635  0.00  0.00    +0.000 HD
BRANCH  33  39
ATOM     35  C   UNL     1      -8.810 -12.293  15.861  0.00  0.00    +0.000 A 
ATOM     36  S   UNL     1      -9.157 -10.859  15.000  0.00  0.00    +0.000 S 
ATOM     37  C   UNL     1      -9.070  -9.908  16.406  0.00  0.00    +0.000 A 
ATOM     38  N   UNL     1      -9.304  -8.572  16.357  0.00  0.00    +0.000 NA
ATOM     39  C   UNL     1      -9.277  -7.969  17.508  0.00  0.00    +0.000 A 
ATOM     40  N   UNL     1      -9.007  -8.606  18.697  0.00  0.00    +0.000 N 
ATOM     41  C   UNL     1      -8.717  -9.948  18.797  0.00  0.00    +0.000 A 
ATOM     42  O   UNL     1      -8.440 -10.467  19.872  0.00  0.00    +0.000 OA
ATOM     43  C   UNL     1      -8.782 -10.661  17.526  0.00  0.00    +0.000 A 
ATOM     44  C   UNL     1      -8.608 -12.060  17.217  0.00  0.00    +0.000 A 
ATOM     45  H   UNL     1      -8.990  -8.061  19.551  0.00  0.00    +0.000 HD
BRANCH  35  46
ATOM     46  C   UNL     1      -8.758 -13.597  15.130  0.00  0.00    +0.000 C 
ATOM     47  H   UNL     1      -8.210 -14.368  15.682  0.00  0.00    +0.000 HD
ATOM     48  H   UNL     1      -8.262 -13.468  14.162  0.00  0.00    +0.000 HD
ATOM     49  H   UNL     1      -9.771 -13.971  14.951  0.00  0.00    +0.000 HD
ENDBRANCH  35  46
BRANCH  44  50
ATOM     50  C   UNL     1      -8.274 -13.142  18.194  0.00  0.00    +0.000 C 
ATOM     51  H   UNL     1      -8.414 -14.143  17.786  0.00  0.00    +0.000 HD
ATOM     52  H   UNL     1      -8.912 -13.055  19.080  0.00  0.00    +0.000 HD
ATOM     53  H   UNL     1      -7.229 -13.055  18.513  0.00  0.00    +0.000 HD
ENDBRANCH  44  50
ENDBRANCH  33  39
BRANCH  33  54
ATOM     54  C   UNL     1     -10.630  -6.343  18.760  0.00  0.00    +0.000 C 
ATOM     55  H   UNL     1     -11.548  -6.917  18.589  0.00  0.00    +0.000 HD
ATOM     56  H   UNL     1     -10.912  -5.296  18.911  0.00  0.00    +0.000 HD
ATOM     57  H   UNL     1     -10.188  -6.697  19.697  0.00  0.00    +0.000 HD
ENDBRANCH  33  54
ENDBRANCH  31  33
ENDBRANCH   1  31
TORSDOF 9
ENDMDL
MODEL 2
REMARK VINA RESULT:   -10.190      1.853      2.391
REMARK INTER + INTRA:         -14.095
REMARK INTER:                 -13.336
REMARK INTRA:                  -0.759
REMARK UNBOUND:                -0.032
REMARK  Name = 
REMARK  9 active torsions:
REMARK  status: ('A' for Active; 'I' for Inactive)
REMARK    1  A    between atoms: C_1  and  C_2
REMARK    2  A    between atoms: C_6  and  C_7
REMARK    3  A    between atoms: C_7  and  C_8
REMARK    4  A    between atoms: C_7  and  N_9
REMARK    5  A    between atoms: N_9  and  C_10
REMARK    6  A    between atoms: C_13  and  N_14
REMARK    7  A    between atoms: C_16  and  C_17
REMARK    8  A    between atoms: C_19  and  C_20
REMARK    9  A    between atoms: C_29  and  C_30
REMARK                            x       y       z     vdW  Elec       q    Type
REMARK                         _______ _______ _______ _____ _____    ______ ____
ROOT
ATOM      1  C   UNL     1     -10.366  -4.579  18.132  0.00  0.00    +0.000 A 
ATOM      2  C   UNL     1     -11.240  -3.543  18.480  0.00  0.00    +0.000 A 
ATOM      3  C   UNL     1     -10.939  -2.650  19.516  0.00  0.00    +0.000 A 
ATOM      4  C   UNL     1      -9.727  -2.704  20.213  0.00  0.00    +0.000 A 
ATOM      5  C   UNL     1      -8.834  -3.713  19.808  0.00  0.00    +0.000 A 
ATOM      6  F   UNL     1      -7.660  -3.870  20.445  0.00  0.00    +0.000 F 
ATOM      7  C   UNL     1      -9.134  -4.622  18.784  0.00  0.00    +0.000 A 
ATOM      8  H   UNL     1     -12.185  -3.394  17.969  0.00  0.00    +0.000 HD
ATOM      9  H   UNL     1     -11.665  -1.873  19.743  0.00  0.00    +0.000 HD
ATOM     10  H   UNL     1      -8.402  -5.385  18.535  0.00  0.00    +0.000 HD
ENDROOT
BRANCH   4  11
ATOM     11  N   UNL     1      -9.460  -1.784  21.205  0.00  0.00    +0.000 N 
ATOM     12  C   UNL     1      -9.102  -2.172  22.575  0.00  0.00    +0.000 C 
ATOM     13  C   UNL     1     -10.101  -1.564  23.581  0.00  0.00    +0.000 C 
ATOM     14  O   UNL     1     -10.212  -0.134  23.405  0.00  0.00    +0.000 OA
ATOM     15  C   UNL     1     -10.662   0.178  22.071  0.00  0.00    +0.000 C 
ATOM     16  C   UNL     1      -9.662  -0.341  21.014  0.00  0.00    +0.000 C 
ATOM     17  H   UNL     1      -8.100  -1.771  22.772  0.00  0.00    +0.000 HD
ATOM     18  H   UNL     1      -9.026  -3.256  22.710  0.00  0.00    +0.000 HD
ATOM     19  H   UNL     1     -11.095  -2.006  23.444  0.00  0.00    +0.000 HD
ATOM     20  H   UNL     1     -11.643  -0.292  21.921  0.00  0.00    +0.000 HD
ATOM     21  H   UNL     1      -8.693   0.160  21.136  0.00  0.00    +0.000 HD
ATOM     22  H   UNL     1     -10.041  -0.095  20.016  0.00  0.00    +0.000 HD
BRANCH  13  23
ATOM     23  C   UNL     1      -9.632  -1.818  25.007  0.00  0.00    +0.000 C 
ATOM     24  H   UNL     1      -8.652  -1.360  25.184  0.00  0.00    +0.000 HD
ATOM     25  H   UNL     1      -9.559  -2.891  25.214  0.00  0.00    +0.000 HD
ATOM     26  H   UNL     1     -10.325  -1.367  25.725  0.00  0.00    +0.000 HD
ENDBRANCH  13  23
BRANCH  15  27
ATOM     27  C   UNL     1     -10.823   1.688  21.967  0.00  0.00    +0.000 C 
ATOM     28  H   UNL     1     -10.528   2.181  22.900  0.00  0.00    +0.000 HD
ATOM     29  H   UNL     1     -11.870   1.951  21.786  0.00  0.00    +0.000 HD
ATOM     30  H   UNL     1     -10.217   2.095  21.149  0.00  0.00    +0.000 HD
ENDBRANCH  15  27
ENDBRANCH   4  11
BRANCH   1  31
ATOM     31  N   UNL     1     -10.624  -5.493  17.081  0.00  0.00    +0.000 N 
ATOM     32  H   UNL     1     -11.099  -6.296  17.504  0.00  0.00    +0.000 HD
BRANCH  31  33
ATOM     33  C   UNL     1      -9.435  -5.961  16.319  0.00  0.00    +0.000 C 
ATOM     34  H   UNL     1      -8.509  -5.622  16.800  0.00  0.00    +0.000 HD
BRANCH  33  39
ATOM     35  C   UNL     1      -8.588 -11.861  17.676  0.00  0.00    +0.000 A 
ATOM     36  S   UNL     1      -8.730 -10.453  18.633  0.00  0.00    +0.000 S 
ATOM     37  C   UNL     1      -9.028  -9.473  17.276  0.00  0.00    +0.000 A 
ATOM     38  N   UNL     1      -9.206  -8.135  17.412  0.00  0.00    +0.000 NA
ATOM     39  C   UNL     1      -9.357  -7.487  16.295  0.00  0.00    +0.000 A 
ATOM     40  N   UNL     1      -9.364  -8.089  15.059  0.00  0.00    +0.000 N 
ATOM     41  C   UNL     1      -9.235  -9.447  14.868  0.00  0.00    +0.000 A 
ATOM     42  O   UNL     1      -9.291  -9.947  13.751  0.00  0.00    +0.000 OA
ATOM     43  C   UNL     1      -9.021 -10.197  16.101  0.00  0.00    +0.000 A 
ATOM     44  C   UNL     1      -8.784 -11.603  16.324  0.00  0.00    +0.000 A 
ATOM     45  H   UNL     1      -9.502  -7.515  14.235  0.00  0.00    +0.000 HD
BRANCH  35  46
ATOM     46  C   UNL     1      -8.283 -13.170  18.332  0.00  0.00    +0.000 C 
ATOM     47  H   UNL     1      -8.010 -13.949  17.611  0.00  0.00    +0.000 HD
ATOM     48  H   UNL     1      -9.157 -13.526  18.888  0.00  0.00    +0.000 HD
ATOM     49  H   UNL     1      -7.450 -13.057  19.033  0.00  0.00    +0.000 HD
ENDBRANCH  35  46
BRANCH  44  50
ATOM     50  C   UNL     1      -8.731 -12.663  15.270  0.00  0.00    +0.000 C 
ATOM     51  H   UNL     1      -8.063 -13.486  15.527  0.00  0.00    +0.000 HD
ATOM     52  H   UNL     1      -8.377 -12.234  14.326  0.00  0.00    +0.000 HD
ATOM     53  H   UNL     1      -9.728 -13.084  15.105  0.00  0.00    +0.000 HD
ENDBRANCH  44  50
ENDBRANCH  33  39
BRANCH  33  54
ATOM     54  C   UNL     1      -9.500  -5.495  14.862  0.00  0.00    +0.000 C 
ATOM     55  H   UNL     1     -10.282  -4.743  14.719  0.00  0.00    +0.000 HD
ATOM     56  H   UNL     1      -9.712  -6.332  14.188  0.00  0.00    +0.000 HD
ATOM     57  H   UNL     1      -8.552  -5.053  14.538  0.00  0.00    +0.000 HD
ENDBRANCH  33  54
ENDBRANCH  31  33
ENDBRANCH   1  31
TORSDOF 9
ENDMDL
MODEL 3
REMARK VINA RESULT:   -10.113      2.081      2.686
REMARK INTER + INTRA:         -13.989
REMARK INTER:                 -13.285
REMARK INTRA:                  -0.704
REMARK UNBOUND:                -0.032
REMARK  Name = 
REMARK  9 active torsions:
REMARK  status: ('A' for Active; 'I' for Inactive)
REMARK    1  A    between atoms: C_1  and  C_2
REMARK    2  A    between atoms: C_6  and  C_7
REMARK    3  A    between atoms: C_7  and  C_8
REMARK    4  A    between atoms: C_7  and  N_9
REMARK    5  A    between atoms: N_9  and  C_10
REMARK    6  A    between atoms: C_13  and  N_14
REMARK    7  A    between atoms: C_16  and  C_17
REMARK    8  A    between atoms: C_19  and  C_20
REMARK    9  A    between atoms: C_29  and  C_30
REMARK                            x       y       z     vdW  Elec       q    Type
REMARK                         _______ _______ _______ _____ _____    ______ ____
ROOT
ATOM      1  C   UNL     1     -10.143  -4.670  18.132  0.00  0.00    +0.000 A 
ATOM      2  C   UNL     1      -8.978  -4.739  18.904  0.00  0.00    +0.000 A 
ATOM      3  C   UNL     1      -8.714  -3.807  19.915  0.00  0.00    +0.000 A 
ATOM      4  C   UNL     1      -9.626  -2.801  20.251  0.00  0.00    +0.000 A 
ATOM      5  C   UNL     1     -10.820  -2.784  19.507  0.00  0.00    +0.000 A 
ATOM      6  F   UNL     1     -11.741  -1.830  19.729  0.00  0.00    +0.000 F 
ATOM      7  C   UNL     1     -11.084  -3.702  18.480  0.00  0.00    +0.000 A 
ATOM      8  H   UNL     1      -8.230  -5.510  18.746  0.00  0.00    +0.000 HD
ATOM      9  H   UNL     1      -7.786  -3.911  20.472  0.00  0.00    +0.000 HD
ATOM     10  H   UNL     1     -12.021  -3.619  17.937  0.00  0.00    +0.000 HD
ENDROOT
BRANCH   4  11
ATOM     11  N   UNL     1      -9.339  -1.923  21.275  0.00  0.00    +0.000 N 
ATOM     12  C   UNL     1      -9.046  -2.365  22.644  0.00  0.00    +0.000 C 
ATOM     13  C   UNL     1     -10.040  -1.728  23.636  0.00  0.00    +0.000 C 
ATOM     14  O   UNL     1     -10.067  -0.290  23.496  0.00  0.00    +0.000 OA
ATOM     15  C   UNL     1     -10.458   0.080  22.158  0.00  0.00    +0.000 C 
ATOM     16  C   UNL     1      -9.456  -0.466  21.118  0.00  0.00    +0.000 C 
ATOM     17  H   UNL     1      -8.029  -2.026  22.881  0.00  0.00    +0.000 HD
ATOM     18  H   UNL     1      -9.033  -3.454  22.752  0.00  0.00    +0.000 HD
ATOM     19  H   UNL     1     -11.053  -2.111  23.459  0.00  0.00    +0.000 HD
ATOM     20  H   UNL     1     -11.458  -0.330  21.967  0.00  0.00    +0.000 HD
ATOM     21  H   UNL     1      -8.465  -0.023  21.282  0.00  0.00    +0.000 HD
ATOM     22  H   UNL     1      -9.790  -0.174  20.116  0.00  0.00    +0.000 HD
BRANCH  13  23
ATOM     23  C   UNL     1      -9.630  -2.044  25.068  0.00  0.00    +0.000 C 
ATOM     24  H   UNL     1      -8.862  -2.826  25.092  0.00  0.00    +0.000 HD
ATOM     25  H   UNL     1     -10.488  -2.379  25.660  0.00  0.00    +0.000 HD
ATOM     26  H   UNL     1      -9.195  -1.161  25.548  0.00  0.00    +0.000 HD
ENDBRANCH  13  23
BRANCH  15  27
ATOM     27  C   UNL     1     -10.532   1.600  22.091  0.00  0.00    +0.000 C 
ATOM     28  H   UNL     1     -11.087   1.928  21.205  0.00  0.00    +0.000 HD
ATOM     29  H   UNL     1      -9.529   2.029  22.014  0.00  0.00    +0.000 HD
ATOM     30  H   UNL     1     -11.019   2.012  22.982  0.00  0.00    +0.000 HD
ENDBRANCH  15  27
ENDBRANCH   4  11
BRANCH   1  31
ATOM     31  N   UNL     1     -10.456  -5.601  17.111  0.00  0.00    +0.000 N 
ATOM     32  H   UNL     1     -10.936  -6.383  17.567  0.00  0.00    +0.000 HD
BRANCH  31  33
ATOM     33  C   UNL     1      -9.303  -6.114  16.323  0.00  0.00    +0.000 C 
ATOM     34  H   UNL     1      -8.354  -5.805  16.779  0.00  0.00    +0.000 HD
BRANCH  33  39
ATOM     35  C   UNL     1      -8.651 -12.033  17.706  0.00  0.00    +0.000 A 
ATOM     36  S   UNL     1      -8.736 -10.615  18.657  0.00  0.00    +0.000 S 
ATOM     37  C   UNL     1      -9.011  -9.633  17.297  0.00  0.00    +0.000 A 
ATOM     38  N   UNL     1      -9.142  -8.289  17.426  0.00  0.00    +0.000 NA
ATOM     39  C   UNL     1      -9.278  -7.642  16.307  0.00  0.00    +0.000 A 
ATOM     40  N   UNL     1      -9.317  -8.250  15.074  0.00  0.00    +0.000 N 
ATOM     41  C   UNL     1      -9.236  -9.612  14.890  0.00  0.00    +0.000 A 
ATOM     42  O   UNL     1      -9.318 -10.116  13.776  0.00  0.00    +0.000 OA
ATOM     43  C   UNL     1      -9.038 -10.363  16.125  0.00  0.00    +0.000 A 
ATOM     44  C   UNL     1      -8.848 -11.776  16.354  0.00  0.00    +0.000 A 
ATOM     45  H   UNL     1      -9.441  -7.676  14.249  0.00  0.00    +0.000 HD
BRANCH  35  46
ATOM     46  C   UNL     1      -8.387 -13.348  18.367  0.00  0.00    +0.000 C 
ATOM     47  H   UNL     1      -9.291 -13.958  18.467  0.00  0.00    +0.000 HD
ATOM     48  H   UNL     1      -7.981 -13.191  19.372  0.00  0.00    +0.000 HD
ATOM     49  H   UNL     1      -7.658 -13.923  17.787  0.00  0.00    +0.000 HD
ENDBRANCH  35  46
BRANCH  44  50
ATOM     50  C   UNL     1      -8.840 -12.842  15.306  0.00  0.00    +0.000 C 
ATOM     51  H   UNL     1      -8.717 -12.447  14.297  0.00  0.00    +0.000 HD
ATOM     52  H   UNL     1      -9.785 -13.397  15.329  0.00  0.00    +0.000 HD
ATOM     53  H   UNL     1      -8.023 -13.548  15.489  0.00  0.00    +0.000 HD
ENDBRANCH  44  50
ENDBRANCH  33  39
BRANCH  33  54
ATOM     54  C   UNL     1      -9.388  -5.655  14.865  0.00  0.00    +0.000 C 
ATOM     55  H   UNL     1      -9.240  -4.573  14.779  0.00  0.00    +0.000 HD
ATOM     56  H   UNL     1     -10.364  -5.895  14.431  0.00  0.00    +0.000 HD
ATOM     57  H   UNL     1      -8.630  -6.143  14.244  0.00  0.00    +0.000 HD
ENDBRANCH  33  54
ENDBRANCH  31  33
ENDBRANCH   1  31
TORSDOF 9
ENDMDL
MODEL 4
REMARK VINA RESULT:    -9.843      1.208      1.456
REMARK INTER + INTRA:         -13.616
REMARK INTER:                 -12.959
REMARK INTRA:                  -0.657
REMARK UNBOUND:                -0.032
REMARK  Name = 
REMARK  9 active torsions:
REMARK  status: ('A' for Active; 'I' for Inactive)
REMARK    1  A    between atoms: C_1  and  C_2
REMARK    2  A    between atoms: C_6  and  C_7
REMARK    3  A    between atoms: C_7  and  C_8
REMARK    4  A    between atoms: C_7  and  N_9
REMARK    5  A    between atoms: N_9  and  C_10
REMARK    6  A    between atoms: C_13  and  N_14
REMARK    7  A    between atoms: C_16  and  C_17
REMARK    8  A    between atoms: C_19  and  C_20
REMARK    9  A    between atoms: C_29  and  C_30
REMARK                            x       y       z     vdW  Elec       q    Type
REMARK                         _______ _______ _______ _____ _____    ______ ____
ROOT
ATOM      1  C   UNL     1     -10.269  -4.693  18.383  0.00  0.00    +0.000 A 
ATOM      2  C   UNL     1     -11.195  -3.665  18.589  0.00  0.00    +0.000 A 
ATOM      3  C   UNL     1     -10.953  -2.633  19.503  0.00  0.00    +0.000 A 
ATOM      4  C   UNL     1      -9.749  -2.538  20.210  0.00  0.00    +0.000 A 
ATOM      5  C   UNL     1      -8.803  -3.546  19.946  0.00  0.00    +0.000 A 
ATOM      6  F   UNL     1      -7.633  -3.562  20.607  0.00  0.00    +0.000 F 
ATOM      7  C   UNL     1      -9.046  -4.593  19.045  0.00  0.00    +0.000 A 
ATOM      8  H   UNL     1     -12.140  -3.630  18.055  0.00  0.00    +0.000 HD
ATOM      9  H   UNL     1     -11.717  -1.869  19.622  0.00  0.00    +0.000 HD
ATOM     10  H   UNL     1      -8.275  -5.344  18.903  0.00  0.00    +0.000 HD
ENDROOT
BRANCH   4  11
ATOM     11  N   UNL     1      -9.540  -1.487  21.078  0.00  0.00    +0.000 N 
ATOM     12  C   UNL     1      -8.955  -1.660  22.413  0.00  0.00    +0.000 C 
ATOM     13  C   UNL     1      -9.920  -1.131  23.493  0.00  0.00    +0.000 C 
ATOM     14  O   UNL     1     -10.315   0.231  23.217  0.00  0.00    +0.000 OA
ATOM     15  C   UNL     1     -10.972   0.318  21.936  0.00  0.00    +0.000 C 
ATOM     16  C   UNL     1     -10.027  -0.128  20.799  0.00  0.00    +0.000 C 
ATOM     17  H   UNL     1      -8.027  -1.073  22.437  0.00  0.00    +0.000 HD
ATOM     18  H   UNL     1      -8.663  -2.694  22.624  0.00  0.00    +0.000 HD
ATOM     19  H   UNL     1     -10.825  -1.751  23.531  0.00  0.00    +0.000 HD
ATOM     20  H   UNL     1     -11.860  -0.328  21.961  0.00  0.00    +0.000 HD
ATOM     21  H   UNL     1      -9.160   0.543  20.746  0.00  0.00    +0.000 HD
ATOM     22  H   UNL     1     -10.562  -0.058  19.845  0.00  0.00    +0.000 HD
BRANCH  13  23
ATOM     23  C   UNL     1      -9.245  -1.149  24.857  0.00  0.00    +0.000 C 
ATOM     24  H   UNL     1      -8.930  -0.141  25.151  0.00  0.00    +0.000 HD
ATOM     25  H   UNL     1      -8.367  -1.803  24.855  0.00  0.00    +0.000 HD
ATOM     26  H   UNL     1      -9.941  -1.498  25.627  0.00  0.00    +0.000 HD
ENDBRANCH  13  23
BRANCH  15  27
ATOM     27  C   UNL     1     -11.422   1.758  21.732  0.00  0.00    +0.000 C 
ATOM     28  H   UNL     1     -11.731   1.931  20.695  0.00  0.00    +0.000 HD
ATOM     29  H   UNL     1     -10.598   2.449  21.937  0.00  0.00    +0.000 HD
ATOM     30  H   UNL     1     -12.258   2.009  22.393  0.00  0.00    +0.000 HD
ENDBRANCH  15  27
ENDBRANCH   4  11
BRANCH   1  31
ATOM     31  N   UNL     1     -10.468  -5.747  17.457  0.00  0.00    +0.000 N 
ATOM     32  H   UNL     1     -10.842  -6.537  17.992  0.00  0.00    +0.000 HD
BRANCH  31  33
ATOM     33  C   UNL     1      -9.265  -6.182  16.698  0.00  0.00    +0.000 C 
ATOM     34  H   UNL     1      -8.362  -5.708  17.100  0.00  0.00    +0.000 HD
BRANCH  33  39
ATOM     35  C   UNL     1      -8.817 -12.202  15.735  0.00  0.00    +0.000 A 
ATOM     36  S   UNL     1      -8.885 -10.854  14.686  0.00  0.00    +0.000 S 
ATOM     37  C   UNL     1      -8.892  -9.754  15.982  0.00  0.00    +0.000 A 
ATOM     38  N   UNL     1      -8.973  -8.418  15.759  0.00  0.00    +0.000 NA
ATOM     39  C   UNL     1      -9.040  -7.688  16.832  0.00  0.00    +0.000 A 
ATOM     40  N   UNL     1      -9.007  -8.200  18.107  0.00  0.00    +0.000 N 
ATOM     41  C   UNL     1      -8.879  -9.541  18.390  0.00  0.00    +0.000 A 
ATOM     42  O   UNL     1      -8.810  -9.951  19.543  0.00  0.00    +0.000 OA
ATOM     43  C   UNL     1      -8.844 -10.392  17.205  0.00  0.00    +0.000 A 
ATOM     44  C   UNL     1      -8.780 -11.828  17.074  0.00  0.00    +0.000 A 
ATOM     45  H   UNL     1      -9.049  -7.561  18.893  0.00  0.00    +0.000 HD
BRANCH  35  46
ATOM     46  C   UNL     1      -8.804 -13.582  15.160  0.00  0.00    +0.000 C 
ATOM     47  H   UNL     1      -8.681 -13.584  14.071  0.00  0.00    +0.000 HD
ATOM     48  H   UNL     1      -9.745 -14.095  15.387  0.00  0.00    +0.000 HD
ATOM     49  H   UNL     1      -7.982 -14.163  15.590  0.00  0.00    +0.000 HD
ENDBRANCH  35  46
BRANCH  44  50
ATOM     50  C   UNL     1      -8.702 -12.811  18.198  0.00  0.00    +0.000 C 
ATOM     51  H   UNL     1      -9.412 -12.600  18.998  0.00  0.00    +0.000 HD
ATOM     52  H   UNL     1      -7.698 -12.799  18.636  0.00  0.00    +0.000 HD
ATOM     53  H   UNL     1      -8.905 -13.823  17.832  0.00  0.00    +0.000 HD
ENDBRANCH  44  50
ENDBRANCH  33  39
BRANCH  33  54
ATOM     54  C   UNL     1      -9.424  -5.886  15.204  0.00  0.00    +0.000 C 
ATOM     55  H   UNL     1      -9.825  -4.881  15.037  0.00  0.00    +0.000 HD
ATOM     56  H   UNL     1     -10.103  -6.602  14.729  0.00  0.00    +0.000 HD
ATOM     57  H   UNL     1      -8.467  -5.951  14.677  0.00  0.00    +0.000 HD
ENDBRANCH  33  54
ENDBRANCH  31  33
ENDBRANCH   1  31
TORSDOF 9
ENDMDL
MODEL 5
REMARK VINA RESULT:    -9.812      2.943      9.706
REMARK INTER + INTRA:         -13.572
REMARK INTER:                 -13.543
REMARK INTRA:                  -0.030
REMARK UNBOUND:                -0.032
REMARK  Name = 
REMARK  9 active torsions:
REMARK  status: ('A' for Active; 'I' for Inactive)
REMARK    1  A    between atoms: C_1  and  C_2
REMARK    2  A    between atoms: C_6  and  C_7
REMARK    3  A    between atoms: C_7  and  C_8
REMARK    4  A    between atoms: C_7  and  N_9
REMARK    5  A    between atoms: N_9  and  C_10
REMARK    6  A    between atoms: C_13  and  N_14
REMARK    7  A    between atoms: C_16  and  C_17
REMARK    8  A    between atoms: C_19  and  C_20
REMARK    9  A    between atoms: C_29  and  C_30
REMARK                            x       y       z     vdW  Elec       q    Type
REMARK                         _______ _______ _______ _____ _____    ______ ____
ROOT
ATOM      1  C   UNL     1     -10.880  -7.775  17.172  0.00  0.00    +0.000 A 
ATOM      2  C   UNL     1     -11.090  -8.720  16.162  0.00  0.00    +0.000 A 
ATOM      3  C   UNL     1     -10.334  -9.896  16.091  0.00  0.00    +0.000 A 
ATOM      4  C   UNL     1      -9.376 -10.221  17.058  0.00  0.00    +0.000 A 
ATOM      5  C   UNL     1      -9.221  -9.289  18.102  0.00  0.00    +0.000 A 
ATOM      6  F   UNL     1      -8.297  -9.493  19.056  0.00  0.00    +0.000 F 
ATOM      7  C   UNL     1      -9.962  -8.100  18.170  0.00  0.00    +0.000 A 
ATOM      8  H   UNL     1     -11.840  -8.577  15.390  0.00  0.00    +0.000 HD
ATOM      9  H   UNL     1     -10.541 -10.585  15.276  0.00  0.00    +0.000 HD
ATOM     10  H   UNL     1      -9.777  -7.420  18.997  0.00  0.00    +0.000 HD
ENDROOT
BRANCH   4  11
ATOM     11  N   UNL     1      -8.676 -11.405  16.967  0.00  0.00    +0.000 N 
ATOM     12  C   UNL     1      -8.366 -12.050  15.685  0.00  0.00    +0.000 C 
ATOM     13  C   UNL     1      -8.945 -13.478  15.651  0.00  0.00    +0.000 C 
ATOM     14  O   UNL     1      -8.507 -14.246  16.795  0.00  0.00    +0.000 OA
ATOM     15  C   UNL     1      -8.929 -13.612  18.020  0.00  0.00    +0.000 C 
ATOM     16  C   UNL     1      -8.318 -12.200  18.150  0.00  0.00    +0.000 C 
ATOM     17  H   UNL     1      -7.272 -12.100  15.606  0.00  0.00    +0.000 HD
ATOM     18  H   UNL     1      -8.704 -11.472  14.819  0.00  0.00    +0.000 HD
ATOM     19  H   UNL     1     -10.042 -13.445  15.658  0.00  0.00    +0.000 HD
ATOM     20  H   UNL     1     -10.025 -13.548  18.014  0.00  0.00    +0.000 HD
ATOM     21  H   UNL     1      -7.223 -12.267  18.200  0.00  0.00    +0.000 HD
ATOM     22  H   UNL     1      -8.667 -11.747  19.086  0.00  0.00    +0.000 HD
BRANCH  13  23
ATOM     23  C   UNL     1      -8.475 -14.208  14.399  0.00  0.00    +0.000 C 
ATOM     24  H   UNL     1      -9.325 -14.621  13.846  0.00  0.00    +0.000 HD
ATOM     25  H   UNL     1      -7.791 -15.024  14.651  0.00  0.00    +0.000 HD
ATOM     26  H   UNL     1      -7.963 -13.516  13.722  0.00  0.00    +0.000 HD
ENDBRANCH  13  23
BRANCH  15  27
ATOM     27  C   UNL     1      -8.498 -14.497  19.182  0.00  0.00    +0.000 C 
ATOM     28  H   UNL     1      -7.511 -14.203  19.556  0.00  0.00    +0.000 HD
ATOM     29  H   UNL     1      -8.418 -15.540  18.861  0.00  0.00    +0.000 HD
ATOM     30  H   UNL     1      -9.216 -14.442  20.008  0.00  0.00    +0.000 HD
ENDBRANCH  15  27
ENDBRANCH   4  11
BRANCH   1  31
ATOM     31  N   UNL     1     -11.632  -6.581  17.289  0.00  0.00    +0.000 N 
ATOM     32  H   UNL     1     -12.526  -6.753  16.818  0.00  0.00    +0.000 HD
BRANCH  31  33
ATOM     33  C   UNL     1     -11.001  -5.356  16.729  0.00  0.00    +0.000 C 
ATOM     34  H   UNL     1     -11.759  -4.690  16.301  0.00  0.00    +0.000 HD
BRANCH  33  39
ATOM     35  C   UNL     1      -7.445  -3.456  21.324  0.00  0.00    +0.000 A 
ATOM     36  S   UNL     1      -7.355  -4.783  20.252  0.00  0.00    +0.000 S 
ATOM     37  C   UNL     1      -8.729  -4.273  19.390  0.00  0.00    +0.000 A 
ATOM     38  N   UNL     1      -9.207  -5.003  18.351  0.00  0.00    +0.000 NA
ATOM     39  C   UNL     1     -10.302  -4.544  17.820  0.00  0.00    +0.000 A 
ATOM     40  N   UNL     1     -10.933  -3.398  18.241  0.00  0.00    +0.000 N 
ATOM     41  C   UNL     1     -10.465  -2.596  19.258  0.00  0.00    +0.000 A 
ATOM     42  O   UNL     1     -11.036  -1.559  19.573  0.00  0.00    +0.000 OA
ATOM     43  C   UNL     1      -9.261  -3.107  19.904  0.00  0.00    +0.000 A 
ATOM     44  C   UNL     1      -8.504  -2.606  21.027  0.00  0.00    +0.000 A 
ATOM     45  H   UNL     1     -11.776  -3.100  17.764  0.00  0.00    +0.000 HD
BRANCH  35  46
ATOM     46  C   UNL     1      -6.439  -3.328  22.424  0.00  0.00    +0.000 C 
ATOM     47  H   UNL     1      -6.898  -3.351  23.419  0.00  0.00    +0.000 HD
ATOM     48  H   UNL     1      -5.896  -2.381  22.332  0.00  0.00    +0.000 HD
ATOM     49  H   UNL     1      -5.715  -4.147  22.371  0.00  0.00    +0.000 HD
ENDBRANCH  35  46
BRANCH  44  50
ATOM     50  C   UNL     1      -8.799  -1.360  21.799  0.00  0.00    +0.000 C 
ATOM     51  H   UNL     1      -9.455  -1.534  22.653  0.00  0.00    +0.000 HD
ATOM     52  H   UNL     1      -9.289  -0.626  21.151  0.00  0.00    +0.000 HD
ATOM     53  H   UNL     1      -7.871  -0.920  22.178  0.00  0.00    +0.000 HD
ENDBRANCH  44  50
ENDBRANCH  33  39
BRANCH  33  54
ATOM     54  C   UNL     1      -9.934  -5.716  15.690  0.00  0.00    +0.000 C 
ATOM     55  H   UNL     1     -10.221  -5.374  14.690  0.00  0.00    +0.000 HD
ATOM     56  H   UNL     1      -9.778  -6.798  15.643  0.00  0.00    +0.000 HD
ATOM     57  H   UNL     1      -8.969  -5.260  15.931  0.00  0.00    +0.000 HD
ENDBRANCH  33  54
ENDBRANCH  31  33
ENDBRANCH   1  31
TORSDOF 9
ENDMDL
MODEL 6
REMARK VINA RESULT:    -9.745      1.068      1.839
REMARK INTER + INTRA:         -13.481
REMARK INTER:                 -13.508
REMARK INTRA:                   0.027
REMARK UNBOUND:                -0.032
REMARK  Name = 
REMARK  9 active torsions:
REMARK  status: ('A' for Active; 'I' for Inactive)
REMARK    1  A    between atoms: C_1  and  C_2
REMARK    2  A    between atoms: C_6  and  C_7
REMARK    3  A    between atoms: C_7  and  C_8
REMARK    4  A    between atoms: C_7  and  N_9
REMARK    5  A    between atoms: N_9  and  C_10
REMARK    6  A    between atoms: C_13  and  N_14
REMARK    7  A    between atoms: C_16  and  C_17
REMARK    8  A    between atoms: C_19  and  C_20
REMARK    9  A    between atoms: C_29  and  C_30
REMARK                            x       y       z     vdW  Elec       q    Type
REMARK                         _______ _______ _______ _____ _____    ______ ____
ROOT
ATOM      1  C   UNL     1      -8.584  -4.146  19.570  0.00  0.00    +0.000 A 
ATOM      2  C   UNL     1      -9.434  -3.040  19.470  0.00  0.00    +0.000 A 
ATOM      3  C   UNL     1      -9.746  -2.253  20.586  0.00  0.00    +0.000 A 
ATOM      4  C   UNL     1      -9.177  -2.490  21.842  0.00  0.00    +0.000 A 
ATOM      5  C   UNL     1      -8.276  -3.569  21.911  0.00  0.00    +0.000 A 
ATOM      6  F   UNL     1      -7.710  -3.900  23.085  0.00  0.00    +0.000 F 
ATOM      7  C   UNL     1      -7.972  -4.372  20.803  0.00  0.00    +0.000 A 
ATOM      8  H   UNL     1      -9.890  -2.751  18.529  0.00  0.00    +0.000 HD
ATOM      9  H   UNL     1     -10.421  -1.413  20.442  0.00  0.00    +0.000 HD
ATOM     10  H   UNL     1      -7.279  -5.198  20.935  0.00  0.00    +0.000 HD
ENDROOT
BRANCH   4  11
ATOM     11  N   UNL     1      -9.489  -1.671  22.906  0.00  0.00    +0.000 N 
ATOM     12  C   UNL     1      -9.361  -0.210  22.852  0.00  0.00    +0.000 C 
ATOM     13  C   UNL     1      -8.411   0.286  23.960  0.00  0.00    +0.000 C 
ATOM     14  O   UNL     1      -8.824  -0.201  25.257  0.00  0.00    +0.000 OA
ATOM     15  C   UNL     1      -8.834  -1.643  25.276  0.00  0.00    +0.000 C 
ATOM     16  C   UNL     1      -9.828  -2.203  24.234  0.00  0.00    +0.000 C 
ATOM     17  H   UNL     1     -10.362   0.208  23.018  0.00  0.00    +0.000 HD
ATOM     18  H   UNL     1      -9.040   0.158  21.871  0.00  0.00    +0.000 HD
ATOM     19  H   UNL     1      -7.388  -0.065  23.771  0.00  0.00    +0.000 HD
ATOM     20  H   UNL     1      -7.819  -1.996  25.054  0.00  0.00    +0.000 HD
ATOM     21  H   UNL     1     -10.849  -1.885  24.481  0.00  0.00    +0.000 HD
ATOM     22  H   UNL     1      -9.801  -3.298  24.271  0.00  0.00    +0.000 HD
BRANCH  13  23
ATOM     23  C   UNL     1      -8.414   1.807  24.016  0.00  0.00    +0.000 C 
ATOM     24  H   UNL     1      -8.432   2.236  23.007  0.00  0.00    +0.000 HD
ATOM     25  H   UNL     1      -7.532   2.186  24.541  0.00  0.00    +0.000 HD
ATOM     26  H   UNL     1      -9.311   2.171  24.529  0.00  0.00    +0.000 HD
ENDBRANCH  13  23
BRANCH  15  27
ATOM     27  C   UNL     1      -9.212  -2.094  26.680  0.00  0.00    +0.000 C 
ATOM     28  H   UNL     1      -8.386  -1.933  27.382  0.00  0.00    +0.000 HD
ATOM     29  H   UNL     1      -9.432  -3.166  26.692  0.00  0.00    +0.000 HD
ATOM     30  H   UNL     1     -10.092  -1.555  27.045  0.00  0.00    +0.000 HD
ENDBRANCH  15  27
ENDBRANCH   4  11
BRANCH   1  31
ATOM     31  N   UNL     1      -8.230  -4.958  18.465  0.00  0.00    +0.000 N 
ATOM     32  H   UNL     1      -7.731  -4.351  17.807  0.00  0.00    +0.000 HD
BRANCH  31  33
ATOM     33  C   UNL     1      -9.356  -5.633  17.767  0.00  0.00    +0.000 C 
ATOM     34  H   UNL     1      -9.449  -5.267  16.737  0.00  0.00    +0.000 HD
BRANCH  33  39
ATOM     35  C   UNL     1      -8.917 -11.424  15.857  0.00  0.00    +0.000 A 
ATOM     36  S   UNL     1      -9.042  -9.931  15.036  0.00  0.00    +0.000 S 
ATOM     37  C   UNL     1      -8.995  -9.046  16.486  0.00  0.00    +0.000 A 
ATOM     38  N   UNL     1      -9.094  -7.693  16.478  0.00  0.00    +0.000 NA
ATOM     39  C   UNL     1      -9.116  -7.139  17.653  0.00  0.00    +0.000 A 
ATOM     40  N   UNL     1      -9.021  -7.842  18.831  0.00  0.00    +0.000 N 
ATOM     41  C   UNL     1      -8.872  -9.210  18.895  0.00  0.00    +0.000 A 
ATOM     42  O   UNL     1      -8.748  -9.793  19.965  0.00  0.00    +0.000 OA
ATOM     43  C   UNL     1      -8.887  -9.865  17.592  0.00  0.00    +0.000 A 
ATOM     44  C   UNL     1      -8.821 -11.263  17.235  0.00  0.00    +0.000 A 
ATOM     45  H   UNL     1      -9.031  -7.334  19.707  0.00  0.00    +0.000 HD
BRANCH  35  46
ATOM     46  C   UNL     1      -8.923 -12.698  15.074  0.00  0.00    +0.000 C 
ATOM     47  H   UNL     1      -9.602 -13.448  15.495  0.00  0.00    +0.000 HD
ATOM     48  H   UNL     1      -7.919 -13.135  15.056  0.00  0.00    +0.000 HD
ATOM     49  H   UNL     1      -9.234 -12.506  14.043  0.00  0.00    +0.000 HD
ENDBRANCH  35  46
BRANCH  44  50
ATOM     50  C   UNL     1      -8.685 -12.408  18.188  0.00  0.00    +0.000 C 
ATOM     51  H   UNL     1      -8.311 -12.105  19.166  0.00  0.00    +0.000 HD
ATOM     52  H   UNL     1      -7.987 -13.149  17.783  0.00  0.00    +0.000 HD
ATOM     53  H   UNL     1      -9.655 -12.893  18.338  0.00  0.00    +0.000 HD
ENDBRANCH  44  50
ENDBRANCH  33  39
BRANCH  33  54
ATOM     54  C   UNL     1     -10.667  -5.449  18.537  0.00  0.00    +0.000 C 
ATOM     55  H   UNL     1     -10.671  -6.034  19.463  0.00  0.00    +0.000 HD
ATOM     56  H   UNL     1     -11.526  -5.765  17.936  0.00  0.00    +0.000 HD
ATOM     57  H   UNL     1     -10.831  -4.401  18.808  0.00  0.00    +0.000 HD
ENDBRANCH  33  54
ENDBRANCH  31  33
ENDBRANCH   1  31
TORSDOF 9
ENDMDL
MODEL 7
REMARK VINA RESULT:    -9.702      3.648      9.738
REMARK INTER + INTRA:         -13.420
REMARK INTER:                 -13.790
REMARK INTRA:                   0.370
REMARK UNBOUND:                -0.032
REMARK  Name = 
REMARK  9 active torsions:
REMARK  status: ('A' for Active; 'I' for Inactive)
REMARK    1  A    between atoms: C_1  and  C_2
REMARK    2  A    between atoms: C_6  and  C_7
REMARK    3  A    between atoms: C_7  and  C_8
REMARK    4  A    between atoms: C_7  and  N_9
REMARK    5  A    between atoms: N_9  and  C_10
REMARK    6  A    between atoms: C_13  and  N_14
REMARK    7  A    between atoms: C_16  and  C_17
REMARK    8  A    between atoms: C_19  and  C_20
REMARK    9  A    between atoms: C_29  and  C_30
REMARK                            x       y       z     vdW  Elec       q    Type
REMARK                         _______ _______ _______ _____ _____    ______ ____
ROOT
ATOM      1  C   UNL     1     -10.647  -7.656  17.430  0.00  0.00    +0.000 A 
ATOM      2  C   UNL     1      -9.777  -8.149  18.408  0.00  0.00    +0.000 A 
ATOM      3  C   UNL     1      -9.152  -9.395  18.271  0.00  0.00    +0.000 A 
ATOM      4  C   UNL     1      -9.313 -10.182  17.126  0.00  0.00    +0.000 A 
ATOM      5  C   UNL     1     -10.143  -9.643  16.125  0.00  0.00    +0.000 A 
ATOM      6  F   UNL     1     -10.390 -10.344  15.005  0.00  0.00    +0.000 F 
ATOM      7  C   UNL     1     -10.786  -8.404  16.262  0.00  0.00    +0.000 A 
ATOM      8  H   UNL     1      -9.556  -7.591  19.313  0.00  0.00    +0.000 HD
ATOM      9  H   UNL     1      -8.494  -9.724  19.072  0.00  0.00    +0.000 HD
ATOM     10  H   UNL     1     -11.425  -8.059  15.455  0.00  0.00    +0.000 HD
ENDROOT
BRANCH   4  11
ATOM     11  N   UNL     1      -8.654 -11.388  17.019  0.00  0.00    +0.000 N 
ATOM     12  C   UNL     1      -8.383 -12.037  15.731  0.00  0.00    +0.000 C 
ATOM     13  C   UNL     1      -9.009 -13.446  15.699  0.00  0.00    +0.000 C 
ATOM     14  O   UNL     1      -8.581 -14.233  16.833  0.00  0.00    +0.000 OA
ATOM     15  C   UNL     1      -8.965 -13.591  18.067  0.00  0.00    +0.000 C 
ATOM     16  C   UNL     1      -8.305 -12.200  18.194  0.00  0.00    +0.000 C 
ATOM     17  H   UNL     1      -7.293 -12.123  15.636  0.00  0.00    +0.000 HD
ATOM     18  H   UNL     1      -8.714 -11.445  14.872  0.00  0.00    +0.000 HD
ATOM     19  H   UNL     1     -10.104 -13.376  15.721  0.00  0.00    +0.000 HD
ATOM     20  H   UNL     1     -10.058 -13.491  18.076  0.00  0.00    +0.000 HD
ATOM     21  H   UNL     1      -7.213 -12.303  18.228  0.00  0.00    +0.000 HD
ATOM     22  H   UNL     1      -8.626 -11.740  19.136  0.00  0.00    +0.000 HD
BRANCH  13  23
ATOM     23  C   UNL     1      -8.582 -14.184  14.438  0.00  0.00    +0.000 C 
ATOM     24  H   UNL     1      -8.003 -15.081  14.687  0.00  0.00    +0.000 HD
ATOM     25  H   UNL     1      -7.973 -13.543  13.792  0.00  0.00    +0.000 HD
ATOM     26  H   UNL     1      -9.458 -14.521  13.874  0.00  0.00    +0.000 HD
ENDBRANCH  13  23
BRANCH  15  27
ATOM     27  C   UNL     1      -8.547 -14.495  19.219  0.00  0.00    +0.000 C 
ATOM     28  H   UNL     1      -8.435 -13.923  20.147  0.00  0.00    +0.000 HD
ATOM     29  H   UNL     1      -7.578 -14.957  19.011  0.00  0.00    +0.000 HD
ATOM     30  H   UNL     1      -9.283 -15.289  19.385  0.00  0.00    +0.000 HD
ENDBRANCH  15  27
ENDBRANCH   4  11
BRANCH   1  31
ATOM     31  N   UNL     1     -11.286  -6.395  17.522  0.00  0.00    +0.000 N 
ATOM     32  H   UNL     1     -12.104  -6.438  16.906  0.00  0.00    +0.000 HD
BRANCH  31  33
ATOM     33  C   UNL     1     -10.453  -5.216  17.165  0.00  0.00    +0.000 C 
ATOM     34  H   UNL     1     -11.085  -4.345  16.955  0.00  0.00    +0.000 HD
BRANCH  33  39
ATOM     35  C   UNL     1      -7.754  -2.305  21.813  0.00  0.00    +0.000 A 
ATOM     36  S   UNL     1      -9.284  -2.147  21.068  0.00  0.00    +0.000 S 
ATOM     37  C   UNL     1      -8.994  -3.460  20.029  0.00  0.00    +0.000 A 
ATOM     38  N   UNL     1      -9.916  -3.831  19.105  0.00  0.00    +0.000 NA
ATOM     39  C   UNL     1      -9.548  -4.804  18.325  0.00  0.00    +0.000 A 
ATOM     40  N   UNL     1      -8.335  -5.443  18.423  0.00  0.00    +0.000 N 
ATOM     41  C   UNL     1      -7.384  -5.139  19.372  0.00  0.00    +0.000 A 
ATOM     42  O   UNL     1      -6.333  -5.764  19.452  0.00  0.00    +0.000 OA
ATOM     43  C   UNL     1      -7.750  -4.021  20.235  0.00  0.00    +0.000 A 
ATOM     44  C   UNL     1      -7.020  -3.365  21.293  0.00  0.00    +0.000 A 
ATOM     45  H   UNL     1      -8.129  -6.204  17.786  0.00  0.00    +0.000 HD
BRANCH  35  46
ATOM     46  C   UNL     1      -7.359  -1.348  22.893  0.00  0.00    +0.000 C 
ATOM     47  H   UNL     1      -8.211  -0.787  23.291  0.00  0.00    +0.000 HD
ATOM     48  H   UNL     1      -6.635  -0.622  22.508  0.00  0.00    +0.000 HD
ATOM     49  H   UNL     1      -6.897  -1.888  23.725  0.00  0.00    +0.000 HD
ENDBRANCH  35  46
BRANCH  44  50
ATOM     50  C   UNL     1      -5.654  -3.733  21.779  0.00  0.00    +0.000 C 
ATOM     51  H   UNL     1      -4.895  -3.677  20.998  0.00  0.00    +0.000 HD
ATOM     52  H   UNL     1      -5.658  -4.760  22.162  0.00  0.00    +0.000 HD
ATOM     53  H   UNL     1      -5.347  -3.064  22.590  0.00  0.00    +0.000 HD
ENDBRANCH  44  50
ENDBRANCH  33  39
BRANCH  33  54
ATOM     54  C   UNL     1      -9.539  -5.531  15.978  0.00  0.00    +0.000 C 
ATOM     55  H   UNL     1     -10.099  -5.980  15.151  0.00  0.00    +0.000 HD
ATOM     56  H   UNL     1      -8.746  -6.230  16.264  0.00  0.00    +0.000 HD
ATOM     57  H   UNL     1      -9.051  -4.630  15.595  0.00  0.00    +0.000 HD
ENDBRANCH  33  54
ENDBRANCH  31  33
ENDBRANCH   1  31
TORSDOF 9
ENDMDL
MODEL 8
REMARK VINA RESULT:    -9.631      5.083      6.859
REMARK INTER + INTRA:         -13.323
REMARK INTER:                 -12.863
REMARK INTRA:                  -0.459
REMARK UNBOUND:                -0.032
REMARK  Name = 
REMARK  9 active torsions:
REMARK  status: ('A' for Active; 'I' for Inactive)
REMARK    1  A    between atoms: C_1  and  C_2
REMARK    2  A    between atoms: C_6  and  C_7
REMARK    3  A    between atoms: C_7  and  C_8
REMARK    4  A    between atoms: C_7  and  N_9
REMARK    5  A    between atoms: N_9  and  C_10
REMARK    6  A    between atoms: C_13  and  N_14
REMARK    7  A    between atoms: C_16  and  C_17
REMARK    8  A    between atoms: C_19  and  C_20
REMARK    9  A    between atoms: C_29  and  C_30
REMARK                            x       y       z     vdW  Elec       q    Type
REMARK                         _______ _______ _______ _____ _____    ______ ____
ROOT
ATOM      1  C   UNL     1     -11.546  -4.885  16.844  0.00  0.00    +0.000 A 
ATOM      2  C   UNL     1     -11.777  -3.565  17.245  0.00  0.00    +0.000 A 
ATOM      3  C   UNL     1     -11.801  -2.512  16.322  0.00  0.00    +0.000 A 
ATOM      4  C   UNL     1     -11.659  -2.730  14.947  0.00  0.00    +0.000 A 
ATOM      5  C   UNL     1     -11.490  -4.071  14.554  0.00  0.00    +0.000 A 
ATOM      6  F   UNL     1     -11.305  -4.376  13.258  0.00  0.00    +0.000 F 
ATOM      7  C   UNL     1     -11.448  -5.128  15.474  0.00  0.00    +0.000 A 
ATOM      8  H   UNL     1     -11.940  -3.302  18.286  0.00  0.00    +0.000 HD
ATOM      9  H   UNL     1     -11.976  -1.508  16.700  0.00  0.00    +0.000 HD
ATOM     10  H   UNL     1     -11.298  -6.137  15.100  0.00  0.00    +0.000 HD
ENDROOT
BRANCH   4  11
ATOM     11  N   UNL     1     -11.720  -1.667  14.070  0.00  0.00    +0.000 N 
ATOM     12  C   UNL     1     -12.976  -0.991  13.723  0.00  0.00    +0.000 C 
ATOM     13  C   UNL     1     -13.210  -1.047  12.200  0.00  0.00    +0.000 C 
ATOM     14  O   UNL     1     -12.069  -0.533  11.478  0.00  0.00    +0.000 OA
ATOM     15  C   UNL     1     -10.888  -1.302  11.786  0.00  0.00    +0.000 C 
ATOM     16  C   UNL     1     -10.555  -1.223  13.292  0.00  0.00    +0.000 C 
ATOM     17  H   UNL     1     -12.875   0.056  14.036  0.00  0.00    +0.000 HD
ATOM     18  H   UNL     1     -13.842  -1.386  14.264  0.00  0.00    +0.000 HD
ATOM     19  H   UNL     1     -13.383  -2.083  11.879  0.00  0.00    +0.000 HD
ATOM     20  H   UNL     1     -11.071  -2.344  11.496  0.00  0.00    +0.000 HD
ATOM     21  H   UNL     1     -10.329  -0.186  13.574  0.00  0.00    +0.000 HD
ATOM     22  H   UNL     1      -9.660  -1.825  13.489  0.00  0.00    +0.000 HD
BRANCH  13  23
ATOM     23  C   UNL     1     -14.416  -0.199  11.821  0.00  0.00    +0.000 C 
ATOM     24  H   UNL     1     -14.158   0.519  11.034  0.00  0.00    +0.000 HD
ATOM     25  H   UNL     1     -14.799   0.353  12.686  0.00  0.00    +0.000 HD
ATOM     26  H   UNL     1     -15.219  -0.828  11.423  0.00  0.00    +0.000 HD
ENDBRANCH  13  23
BRANCH  15  27
ATOM     27  C   UNL     1      -9.738  -0.757  10.949  0.00  0.00    +0.000 C 
ATOM     28  H   UNL     1      -9.784  -1.135   9.922  0.00  0.00    +0.000 HD
ATOM     29  H   UNL     1      -8.777  -1.079  11.363  0.00  0.00    +0.000 HD
ATOM     30  H   UNL     1      -9.754   0.338  10.920  0.00  0.00    +0.000 HD
ENDBRANCH  15  27
ENDBRANCH   4  11
BRANCH   1  31
ATOM     31  N   UNL     1     -11.531  -5.980  17.742  0.00  0.00    +0.000 N 
ATOM     32  H   UNL     1     -12.293  -5.820  18.409  0.00  0.00    +0.000 HD
BRANCH  31  33
ATOM     33  C   UNL     1     -10.258  -6.197  18.481  0.00  0.00    +0.000 C 
ATOM     34  H   UNL     1     -10.418  -6.109  19.562  0.00  0.00    +0.000 HD
BRANCH  33  39
ATOM     35  C   UNL     1      -8.873 -11.704  16.218  0.00  0.00    +0.000 A 
ATOM     36  S   UNL     1      -9.439 -10.258  15.504  0.00  0.00    +0.000 S 
ATOM     37  C   UNL     1      -9.366  -9.416  16.979  0.00  0.00    +0.000 A 
ATOM     38  N   UNL     1      -9.755  -8.119  17.058  0.00  0.00    +0.000 NA
ATOM     39  C   UNL     1      -9.719  -7.609  18.253  0.00  0.00    +0.000 A 
ATOM     40  N   UNL     1      -9.298  -8.299  19.365  0.00  0.00    +0.000 N 
ATOM     41  C   UNL     1      -8.849  -9.601  19.333  0.00  0.00    +0.000 A 
ATOM     42  O   UNL     1      -8.442 -10.165  20.342  0.00  0.00    +0.000 OA
ATOM     43  C   UNL     1      -8.919 -10.215  18.012  0.00  0.00    +0.000 A 
ATOM     44  C   UNL     1      -8.607 -11.555  17.574  0.00  0.00    +0.000 A 
ATOM     45  H   UNL     1      -9.285  -7.825  20.260  0.00  0.00    +0.000 HD
BRANCH  35  46
ATOM     46  C   UNL     1      -8.721 -12.931  15.376  0.00  0.00    +0.000 C 
ATOM     47  H   UNL     1      -7.771 -12.952  14.830  0.00  0.00    +0.000 HD
ATOM     48  H   UNL     1      -9.528 -12.984  14.637  0.00  0.00    +0.000 HD
ATOM     49  H   UNL     1      -8.767 -13.827  16.002  0.00  0.00    +0.000 HD
ENDBRANCH  35  46
BRANCH  44  50
ATOM     50  C   UNL     1      -8.085 -12.662  18.435  0.00  0.00    +0.000 C 
ATOM     51  H   UNL     1      -7.777 -13.537  17.862  0.00  0.00    +0.000 HD
ATOM     52  H   UNL     1      -8.860 -12.985  19.139  0.00  0.00    +0.000 HD
ATOM     53  H   UNL     1      -7.219 -12.318  19.010  0.00  0.00    +0.000 HD
ENDBRANCH  44  50
ENDBRANCH  33  39
BRANCH  33  54
ATOM     54  C   UNL     1      -9.175  -5.225  18.004  0.00  0.00    +0.000 C 
ATOM     55  H   UNL     1      -9.565  -4.205  17.917  0.00  0.00    +0.000 HD
ATOM     56  H   UNL     1      -8.784  -5.518  17.024  0.00  0.00    +0.000 HD
ATOM     57  H   UNL     1      -8.327  -5.197  18.694  0.00  0.00    +0.000 HD
ENDBRANCH  33  54
ENDBRANCH  31  33
ENDBRANCH   1  31
TORSDOF 9
ENDMDL
MODEL 9
REMARK VINA RESULT:    -9.541      4.975      6.463
REMARK INTER + INTRA:         -13.199
REMARK INTER:                 -12.784
REMARK INTRA:                  -0.414
REMARK UNBOUND:                -0.032
REMARK  Name = 
REMARK  9 active torsions:
REMARK  status: ('A' for Active; 'I' for Inactive)
REMARK    1  A    between atoms: C_1  and  C_2
REMARK    2  A    between atoms: C_6  and  C_7
REMARK    3  A    between atoms: C_7  and  C_8
REMARK    4  A    between atoms: C_7  and  N_9
REMARK    5  A    between atoms: N_9  and  C_10
REMARK    6  A    between atoms: C_13  and  N_14
REMARK    7  A    between atoms: C_16  and  C_17
REMARK    8  A    between atoms: C_19  and  C_20
REMARK    9  A    between atoms: C_29  and  C_30
REMARK                            x       y       z     vdW  Elec       q    Type
REMARK                         _______ _______ _______ _____ _____    ______ ____
ROOT
ATOM      1  C   UNL     1     -11.788  -4.906  16.522  0.00  0.00    +0.000 A 
ATOM      2  C   UNL     1     -12.206  -3.647  16.968  0.00  0.00    +0.000 A 
ATOM      3  C   UNL     1     -12.194  -2.531  16.124  0.00  0.00    +0.000 A 
ATOM      4  C   UNL     1     -11.827  -2.624  14.777  0.00  0.00    +0.000 A 
ATOM      5  C   UNL     1     -11.469  -3.909  14.328  0.00  0.00    +0.000 A 
ATOM      6  F   UNL     1     -11.063  -4.092  13.060  0.00  0.00    +0.000 F 
ATOM      7  C   UNL     1     -11.462  -5.029  15.172  0.00  0.00    +0.000 A 
ATOM      8  H   UNL     1     -12.548  -3.485  17.985  0.00  0.00    +0.000 HD
ATOM      9  H   UNL     1     -12.522  -1.579  16.535  0.00  0.00    +0.000 HD
ATOM     10  H   UNL     1     -11.159  -5.988  14.760  0.00  0.00    +0.000 HD
ENDROOT
BRANCH   4  11
ATOM     11  N   UNL     1     -11.860  -1.504  13.973  0.00  0.00    +0.000 N 
ATOM     12  C   UNL     1     -11.100  -0.285  14.274  0.00  0.00    +0.000 C 
ATOM     13  C   UNL     1     -12.051   0.923  14.391  0.00  0.00    +0.000 C 
ATOM     14  O   UNL     1     -12.883   1.047  13.216  0.00  0.00    +0.000 OA
ATOM     15  C   UNL     1     -13.677  -0.142  13.031  0.00  0.00    +0.000 C 
ATOM     16  C   UNL     1     -12.778  -1.382  12.832  0.00  0.00    +0.000 C 
ATOM     17  H   UNL     1     -10.407  -0.122  13.438  0.00  0.00    +0.000 HD
ATOM     18  H   UNL     1     -10.475  -0.376  15.169  0.00  0.00    +0.000 HD
ATOM     19  H   UNL     1     -12.704   0.810  15.265  0.00  0.00    +0.000 HD
ATOM     20  H   UNL     1     -14.308  -0.275  13.920  0.00  0.00    +0.000 HD
ATOM     21  H   UNL     1     -12.178  -1.268  11.920  0.00  0.00    +0.000 HD
ATOM     22  H   UNL     1     -13.414  -2.265  12.704  0.00  0.00    +0.000 HD
BRANCH  13  23
ATOM     23  C   UNL     1     -11.251   2.212  14.528  0.00  0.00    +0.000 C 
ATOM     24  H   UNL     1     -11.917   3.076  14.635  0.00  0.00    +0.000 HD
ATOM     25  H   UNL     1     -10.607   2.372  13.657  0.00  0.00    +0.000 HD
ATOM     26  H   UNL     1     -10.626   2.182  15.427  0.00  0.00    +0.000 HD
ENDBRANCH  13  23
BRANCH  15  27
ATOM     27  C   UNL     1     -14.577   0.073  11.822  0.00  0.00    +0.000 C 
ATOM     28  H   UNL     1     -15.047   1.062  11.852  0.00  0.00    +0.000 HD
ATOM     29  H   UNL     1     -15.386  -0.663  11.810  0.00  0.00    +0.000 HD
ATOM     30  H   UNL     1     -14.011  -0.018  10.888  0.00  0.00    +0.000 HD
ENDBRANCH  15  27
ENDBRANCH   4  11
BRANCH   1  31
ATOM     31  N   UNL     1     -11.800  -6.064  17.338  0.00  0.00    +0.000 N 
ATOM     32  H   UNL     1     -12.649  -6.009  17.909  0.00  0.00    +0.000 HD
BRANCH  31  33
ATOM     33  C   UNL     1     -10.617  -6.250  18.219  0.00  0.00    +0.000 C 
ATOM     34  H   UNL     1     -10.909  -6.204  19.275  0.00  0.00    +0.000 HD
BRANCH  33  39
ATOM     35  C   UNL     1      -8.896 -11.712  16.079  0.00  0.00    +0.000 A 
ATOM     36  S   UNL     1      -9.561 -10.324  15.335  0.00  0.00    +0.000 S 
ATOM     37  C   UNL     1      -9.531  -9.442  16.789  0.00  0.00    +0.000 A 
ATOM     38  N   UNL     1     -10.002  -8.171  16.839  0.00  0.00    +0.000 NA
ATOM     39  C   UNL     1      -9.989  -7.630  18.021  0.00  0.00    +0.000 A 
ATOM     40  N   UNL     1      -9.515  -8.263  19.146  0.00  0.00    +0.000 N 
ATOM     41  C   UNL     1      -8.984  -9.534  19.141  0.00  0.00    +0.000 A 
ATOM     42  O   UNL     1      -8.533 -10.045  20.160  0.00  0.00    +0.000 OA
ATOM     43  C   UNL     1      -9.024 -10.184  17.836  0.00  0.00    +0.000 A 
ATOM     44  C   UNL     1      -8.630 -11.512  17.429  0.00  0.00    +0.000 A 
ATOM     45  H   UNL     1      -9.526  -7.766  20.029  0.00  0.00    +0.000 HD
BRANCH  35  46
ATOM     46  C   UNL     1      -8.673 -12.947  15.266  0.00  0.00    +0.000 C 
ATOM     47  H   UNL     1      -7.687 -13.392  15.438  0.00  0.00    +0.000 HD
ATOM     48  H   UNL     1      -8.750 -12.716  14.198  0.00  0.00    +0.000 HD
ATOM     49  H   UNL     1      -9.427 -13.702  15.510  0.00  0.00    +0.000 HD
ENDBRANCH  35  46
BRANCH  44  50
ATOM     50  C   UNL     1      -8.030 -12.561  18.311  0.00  0.00    +0.000 C 
ATOM     51  H   UNL     1      -8.769 -13.263  18.699  0.00  0.00    +0.000 HD
ATOM     52  H   UNL     1      -7.539 -12.091  19.170  0.00  0.00    +0.000 HD
ATOM     53  H   UNL     1      -7.281 -13.137  17.759  0.00  0.00    +0.000 HD
ENDBRANCH  44  50
ENDBRANCH  33  39
BRANCH  33  54
ATOM     54  C   UNL     1      -9.530  -5.218  17.904  0.00  0.00    +0.000 C 
ATOM     55  H   UNL     1      -9.595  -4.354  18.574  0.00  0.00    +0.000 HD
ATOM     56  H   UNL     1      -9.619  -4.852  16.875  0.00  0.00    +0.000 HD
ATOM     57  H   UNL     1      -8.528  -5.644  18.009  0.00  0.00    +0.000 HD
ENDBRANCH  33  54
ENDBRANCH  31  33
ENDBRANCH   1  31
TORSDOF 9
ENDMDL
