REMARK  Name = 
REMARK  7 active torsions:
REMARK  status: ('A' for Active; 'I' for Inactive)
REMARK    1  A    between atoms: C_1  and  C_2
REMARK    2  A    between atoms: C_2  and  C_3
REMARK    3  A    between atoms: C_2  and  C_4
REMARK    4  A    between atoms: C_2  and  C_5
REMARK    5  A    between atoms: C_8  and  C_9
REMARK    6  A    between atoms: C_9  and  N_10
REMARK    7  A    between atoms: C_16  and  N_17
REMARK                            x       y       z     vdW  Elec       q    Type
REMARK                         _______ _______ _______ _____ _____    ______ ____
ROOT
ATOM      1  N   UNL     1       0.854   2.585   1.789  0.00  0.00    +0.000 N 
ATOM      2  C   UNL     1       1.612   2.483   0.458  0.00  0.00    +0.000 C 
ATOM      3  C   UNL     1       1.022   3.360  -0.658  0.00  0.00    +0.000 C 
ATOM      4  N   UNL     1      -0.422   3.184  -0.722  0.00  0.00    +0.000 N 
ATOM      5  C   UNL     1      -1.094   2.530  -1.730  0.00  0.00    +0.000 A 
ATOM      6  C   UNL     1      -0.484   1.660  -2.613  0.00  0.00    +0.000 A 
ATOM      7  C   UNL     1      -1.263   1.106  -3.606  0.00  0.00    +0.000 A 
ATOM      8  N   UNL     1      -2.550   1.395  -3.754  0.00  0.00    +0.000 NA
ATOM      9  C   UNL     1      -3.080   2.221  -2.857  0.00  0.00    +0.000 A 
ATOM     10  N   UNL     1      -4.406   2.571  -3.018  0.00  0.00    +0.000 N 
ATOM     11  N   UNL     1      -2.413   2.782  -1.846  0.00  0.00    +0.000 NA
ATOM     12  C   UNL     1      -1.140   3.569   0.495  0.00  0.00    +0.000 C 
ATOM     13  C   UNL     1      -0.675   2.679   1.667  0.00  0.00    +0.000 C 
ATOM     14  H   UNL     1       1.145   3.477   2.206  0.00  0.00    +0.000 HD
ATOM     15  H   UNL     1       1.579   1.447   0.126  0.00  0.00    +0.000 HD
ATOM     16  H   UNL     1       2.647   2.775   0.669  0.00  0.00    +0.000 HD
ATOM     17  H   UNL     1       1.522   3.142  -1.607  0.00  0.00    +0.000 HD
ATOM     18  H   UNL     1       1.235   4.414  -0.444  0.00  0.00    +0.000 HD
ATOM     19  H   UNL     1       0.563   1.404  -2.555  0.00  0.00    +0.000 HD
ATOM     20  H   UNL     1      -4.669   2.433  -3.986  0.00  0.00    +0.000 HD
ATOM     21  H   UNL     1      -4.562   3.497  -2.643  0.00  0.00    +0.000 HD
ATOM     22  H   UNL     1      -2.229   3.492   0.415  0.00  0.00    +0.000 HD
ATOM     23  H   UNL     1      -0.919   4.619   0.719  0.00  0.00    +0.000 HD
ATOM     24  H   UNL     1      -1.061   1.668   1.536  0.00  0.00    +0.000 HD
ATOM     25  H   UNL     1      -1.031   3.089   2.619  0.00  0.00    +0.000 HD
ENDROOT
BRANCH   1  26
ATOM     26  C   UNL     1       1.273   1.497   2.778  0.00  0.00    +0.000 C 
ATOM     27  H   UNL     1       2.324   1.698   3.020  0.00  0.00    +0.000 HD
ATOM     28  H   UNL     1       0.701   1.665   3.698  0.00  0.00    +0.000 HD
BRANCH  26  32
ATOM     29  C   UNL     1       0.830  -2.583   1.264  0.00  0.00    +0.000 A 
ATOM     30  C   UNL     1       2.009  -1.844   1.083  0.00  0.00    +0.000 A 
ATOM     31  C   UNL     1       2.162  -0.557   1.610  0.00  0.00    +0.000 A 
ATOM     32  C   UNL     1       1.118   0.071   2.300  0.00  0.00    +0.000 A 
ATOM     33  C   UNL     1      -0.068  -0.653   2.486  0.00  0.00    +0.000 A 
ATOM     34  C   UNL     1      -0.209  -1.951   1.968  0.00  0.00    +0.000 A 
ATOM     35  H   UNL     1       2.846  -2.255   0.525  0.00  0.00    +0.000 HD
ATOM     36  H   UNL     1       3.112  -0.052   1.449  0.00  0.00    +0.000 HD
ATOM     37  H   UNL     1      -0.907  -0.225   3.031  0.00  0.00    +0.000 HD
ATOM     38  H   UNL     1      -1.160  -2.457   2.129  0.00  0.00    +0.000 HD
BRANCH  29  39
ATOM     39  C   UNL     1       0.686  -4.008   0.688  0.00  0.00    +0.000 C 
BRANCH  39  40
ATOM     40  C   UNL     1       2.048  -4.739   0.595  0.00  0.00    +0.000 C 
ATOM     41  H   UNL     1       1.923  -5.770   0.245  0.00  0.00    +0.000 HD
ATOM     42  H   UNL     1       2.541  -4.777   1.574  0.00  0.00    +0.000 HD
ATOM     43  H   UNL     1       2.732  -4.258  -0.112  0.00  0.00    +0.000 HD
ENDBRANCH  39  40
BRANCH  39  44
ATOM     44  C   UNL     1       0.087  -3.917  -0.730  0.00  0.00    +0.000 C 
ATOM     45  H   UNL     1       0.003  -4.912  -1.186  0.00  0.00    +0.000 HD
ATOM     46  H   UNL     1       0.710  -3.304  -1.391  0.00  0.00    +0.000 HD
ATOM     47  H   UNL     1      -0.915  -3.475  -0.716  0.00  0.00    +0.000 HD
ENDBRANCH  39  44
BRANCH  39  48
ATOM     48  C   UNL     1      -0.228  -4.912   1.547  0.00  0.00    +0.000 C 
ATOM     49  H   UNL     1      -0.269  -5.930   1.139  0.00  0.00    +0.000 HD
ATOM     50  H   UNL     1      -1.262  -4.552   1.581  0.00  0.00    +0.000 HD
ATOM     51  H   UNL     1       0.141  -4.983   2.577  0.00  0.00    +0.000 HD
ENDBRANCH  39  48
ENDBRANCH  29  39
ENDBRANCH  26  32
ENDBRANCH   1  26
BRANCH   7  52
ATOM     52  N   UNL     1      -0.702   0.233  -4.539  0.00  0.00    +0.000 N 
ATOM     53  H   UNL     1      -0.259  -0.569  -4.105  0.00  0.00    +0.000 HD
ATOM     54  H   UNL     1      -1.451  -0.063  -5.165  0.00  0.00    +0.000 HD
ENDBRANCH   7  52
TORSDOF 7
