REMARK  Name = 
REMARK  10 active torsions:
REMARK  status: ('A' for Active; 'I' for Inactive)
REMARK    1  A    between atoms: C_1  and  C_2
REMARK    2  A    between atoms: C_2  and  N_3
REMARK    3  A    between atoms: N_3  and  C_4
REMARK    4  A    between atoms: N_3  and  C_10
REMARK    5  A    between atoms: N_15  and  N_16
REMARK    6  A    between atoms: N_16  and  C_17
REMARK    7  A    between atoms: C_17  and  C_18
REMARK    8  A    between atoms: C_17  and  C_19
REMARK    9  A    between atoms: C_17  and  C_20
REMARK   10  A    between atoms: C_21  and  N_22
REMARK                            x       y       z     vdW  Elec       q    Type
REMARK                         _______ _______ _______ _____ _____    ______ ____
ROOT
ATOM      1  C   UNL     1      -0.784   1.027  -1.200  0.00  0.00    +0.000 A 
ATOM      2  N   UNL     1       0.000   1.982  -1.758  0.00  0.00    +0.000 NA
ATOM      3  C   UNL     1       1.290   2.018  -1.385  0.00  0.00    +0.000 A 
ATOM      4  N   UNL     1       1.823   1.212  -0.481  0.00  0.00    +0.000 N 
ATOM      5  C   UNL     1       1.093   0.246   0.072  0.00  0.00    +0.000 A 
ATOM      6  N   UNL     1       1.739  -0.615   0.960  0.00  0.00    +0.000 N 
ATOM      7  C   UNL     1      -0.232   0.054  -0.334  0.00  0.00    +0.000 A 
ATOM      8  H   UNL     1       1.932   2.766  -1.840  0.00  0.00    +0.000 HD
ATOM      9  H   UNL     1       2.797   1.240  -0.193  0.00  0.00    +0.000 HD
ATOM     10  H   UNL     1       1.113  -1.063   1.635  0.00  0.00    +0.000 HD
ENDROOT
BRANCH   7  11
ATOM     11  N   UNL     1      -0.906  -1.153  -0.010  0.00  0.00    +0.000 N 
ATOM     12  H   UNL     1      -0.889  -1.432   0.966  0.00  0.00    +0.000 HD
ATOM     13  H   UNL     1      -1.866  -1.175  -0.366  0.00  0.00    +0.000 HD
ENDBRANCH   7  11
BRANCH   6  14
ATOM     14  N   UNL     1       3.063  -0.337   1.356  0.00  0.00    +0.000 NA
ATOM     15  H   UNL     1       3.096  -0.103   2.361  0.00  0.00    +0.000 HD
BRANCH  14  16
ATOM     16  C   UNL     1       3.881  -1.575   1.169  0.00  0.00    +0.000 C 
BRANCH  16  17
ATOM     17  C   UNL     1       3.939  -1.941  -0.324  0.00  0.00    +0.000 C 
ATOM     18  H   UNL     1       4.328  -1.107  -0.920  0.00  0.00    +0.000 HD
ATOM     19  H   UNL     1       2.952  -2.203  -0.723  0.00  0.00    +0.000 HD
ATOM     20  H   UNL     1       4.591  -2.803  -0.489  0.00  0.00    +0.000 HD
ENDBRANCH  16  17
BRANCH  16  21
ATOM     21  C   UNL     1       5.298  -1.257   1.664  0.00  0.00    +0.000 C 
ATOM     22  H   UNL     1       5.738  -0.420   1.111  0.00  0.00    +0.000 HD
ATOM     23  H   UNL     1       5.958  -2.123   1.535  0.00  0.00    +0.000 HD
ATOM     24  H   UNL     1       5.303  -0.996   2.729  0.00  0.00    +0.000 HD
ENDBRANCH  16  21
BRANCH  16  25
ATOM     25  C   UNL     1       3.325  -2.751   1.995  0.00  0.00    +0.000 C 
ATOM     26  H   UNL     1       2.318  -3.044   1.673  0.00  0.00    +0.000 HD
ATOM     27  H   UNL     1       3.270  -2.499   3.061  0.00  0.00    +0.000 HD
ATOM     28  H   UNL     1       3.961  -3.635   1.893  0.00  0.00    +0.000 HD
ENDBRANCH  16  25
ENDBRANCH  14  16
ENDBRANCH   6  14
BRANCH   1  29
ATOM     29  N   UNL     1      -2.193   1.070  -1.420  0.00  0.00    +0.000 N 
BRANCH  29  30
ATOM     30  C   UNL     1      -3.198   0.819  -0.449  0.00  0.00    +0.000 A 
ATOM     31  C   UNL     1      -4.475   0.344  -0.783  0.00  0.00    +0.000 A 
ATOM     32  C   UNL     1      -5.359  -0.122   0.199  0.00  0.00    +0.000 A 
ATOM     33  C   UNL     1      -4.992  -0.125   1.542  0.00  0.00    +0.000 A 
ATOM     34  C   UNL     1      -3.766   0.410   1.913  0.00  0.00    +0.000 A 
ATOM     35  C   UNL     1      -2.906   0.910   0.931  0.00  0.00    +0.000 A 
ATOM     36  H   UNL     1      -4.807   0.262  -1.812  0.00  0.00    +0.000 HD
ATOM     37  H   UNL     1      -6.334  -0.510  -0.089  0.00  0.00    +0.000 HD
ATOM     38  H   UNL     1      -5.664  -0.529   2.295  0.00  0.00    +0.000 HD
ATOM     39  H   UNL     1      -3.474   0.425   2.960  0.00  0.00    +0.000 HD
ATOM     40  H   UNL     1      -1.967   1.339   1.271  0.00  0.00    +0.000 HD
ENDBRANCH  29  30
BRANCH  29  41
ATOM     41  C   UNL     1      -2.571   1.563  -2.761  0.00  0.00    +0.000 C 
ATOM     42  H   UNL     1      -1.818   1.259  -3.501  0.00  0.00    +0.000 HD
ATOM     43  H   UNL     1      -3.492   1.096  -3.123  0.00  0.00    +0.000 HD
BRANCH  41  44
ATOM     44  C   UNL     1      -2.743   3.076  -2.814  0.00  0.00    +0.000 C 
ATOM     45  H   UNL     1      -2.972   3.385  -3.840  0.00  0.00    +0.000 HD
ATOM     46  H   UNL     1      -1.836   3.606  -2.508  0.00  0.00    +0.000 HD
ATOM     47  H   UNL     1      -3.561   3.408  -2.169  0.00  0.00    +0.000 HD
ENDBRANCH  41  44
ENDBRANCH  29  41
ENDBRANCH   1  29
TORSDOF 10
