REMARK  Name = 
REMARK  5 active torsions:
REMARK  status: ('A' for Active; 'I' for Inactive)
REMARK    1  A    between atoms: N_1  and  S_2
REMARK    2  A    between atoms: S_2  and  C_5
REMARK    3  A    between atoms: C_8  and  N_9
REMARK    4  A    between atoms: C_13  and  C_14
REMARK    5  A    between atoms: C_22  and  C_23
REMARK                            x       y       z     vdW  Elec       q    Type
REMARK                         _______ _______ _______ _____ _____    ______ ____
ROOT
ATOM      1  N   UNL     1       0.188   0.291   0.179  0.00  0.00    +0.000 N 
ATOM      2  C   UNL     1      -0.727   1.285   0.423  0.00  0.00    +0.000 C 
ATOM      3  O   UNL     1      -1.823   1.465  -0.071  0.00  0.00    +0.000 OA
ATOM      4  C   UNL     1      -0.016   2.122   1.437  0.00  0.00    +0.000 C 
ATOM      5  C   UNL     1      -0.522   3.180   2.085  0.00  0.00    +0.000 C 
ATOM      6  N   UNL     1       1.257   1.623   1.645  0.00  0.00    +0.000 NA
ATOM      7  C   UNL     1       1.327   0.553   0.899  0.00  0.00    +0.000 C 
ATOM      8  H   UNL     1       0.085   3.694   2.824  0.00  0.00    +0.000 HD
ENDROOT
BRANCH   5   9
ATOM      9  C   UNL     1      -1.869   3.721   1.894  0.00  0.00    +0.000 A 
ATOM     10  C   UNL     1      -2.950   3.215   2.631  0.00  0.00    +0.000 A 
ATOM     11  C   UNL     1      -4.236   3.717   2.424  0.00  0.00    +0.000 A 
ATOM     12  C   UNL     1      -4.440   4.723   1.488  0.00  0.00    +0.000 A 
ATOM     13  F   UNL     1      -5.674   5.199   1.284  0.00  0.00    +0.000 F 
ATOM     14  C   UNL     1      -3.378   5.234   0.746  0.00  0.00    +0.000 A 
ATOM     15  C   UNL     1      -2.090   4.734   0.952  0.00  0.00    +0.000 A 
ATOM     16  H   UNL     1      -2.798   2.421   3.360  0.00  0.00    +0.000 HD
ATOM     17  H   UNL     1      -5.082   3.326   2.982  0.00  0.00    +0.000 HD
ATOM     18  H   UNL     1      -3.561   6.011   0.012  0.00  0.00    +0.000 HD
ATOM     19  H   UNL     1      -1.265   5.129   0.363  0.00  0.00    +0.000 HD
ENDBRANCH   5   9
BRANCH   7  20
ATOM     20  C   UNL     1       2.560  -0.280   0.825  0.00  0.00    +0.000 A 
ATOM     21  C   UNL     1       2.544  -1.662   0.613  0.00  0.00    +0.000 A 
ATOM     22  C   UNL     1       3.733  -2.379   0.454  0.00  0.00    +0.000 A 
ATOM     23  C   UNL     1       4.956  -1.726   0.561  0.00  0.00    +0.000 A 
ATOM     24  C   UNL     1       4.989  -0.361   0.844  0.00  0.00    +0.000 A 
ATOM     25  C   UNL     1       3.798   0.360   0.975  0.00  0.00    +0.000 A 
ATOM     26  H   UNL     1       1.624  -2.228   0.575  0.00  0.00    +0.000 HD
ATOM     27  H   UNL     1       3.697  -3.445   0.246  0.00  0.00    +0.000 HD
ATOM     28  H   UNL     1       5.879  -2.283   0.438  0.00  0.00    +0.000 HD
ATOM     29  H   UNL     1       5.946   0.144   0.955  0.00  0.00    +0.000 HD
ATOM     30  H   UNL     1       3.844   1.427   1.186  0.00  0.00    +0.000 HD
ENDBRANCH   7  20
BRANCH   1  34
ATOM     31  C   UNL     1      -0.595  -2.971  -2.300  0.00  0.00    +0.000 A 
ATOM     32  C   UNL     1       0.066  -1.858  -2.831  0.00  0.00    +0.000 A 
ATOM     33  C   UNL     1       0.328  -0.759  -2.011  0.00  0.00    +0.000 A 
ATOM     34  C   UNL     1      -0.096  -0.774  -0.679  0.00  0.00    +0.000 A 
ATOM     35  C   UNL     1      -0.801  -1.873  -0.167  0.00  0.00    +0.000 A 
ATOM     36  C   UNL     1      -1.031  -2.983  -0.970  0.00  0.00    +0.000 A 
ATOM     37  H   UNL     1       0.377  -1.847  -3.876  0.00  0.00    +0.000 HD
ATOM     38  H   UNL     1       0.843   0.108  -2.419  0.00  0.00    +0.000 HD
ATOM     39  H   UNL     1      -1.118  -1.887   0.873  0.00  0.00    +0.000 HD
ATOM     40  H   UNL     1      -1.538  -3.852  -0.555  0.00  0.00    +0.000 HD
BRANCH  31  41
ATOM     41  S   UNL     1      -0.945  -4.381  -3.308  0.00  0.00    +0.000 S 
ATOM     42  O   UNL     1      -0.958  -3.985  -4.697  0.00  0.00    +0.000 OA
ATOM     43  O   UNL     1      -2.010  -5.145  -2.709  0.00  0.00    +0.000 OA
BRANCH  41  44
ATOM     44  N   UNL     1       0.444  -5.308  -3.098  0.00  0.00    +0.000 NA
ATOM     45  H   UNL     1       0.786  -5.606  -4.014  0.00  0.00    +0.000 HD
ATOM     46  H   UNL     1       0.253  -6.087  -2.468  0.00  0.00    +0.000 HD
ENDBRANCH  41  44
ENDBRANCH  31  41
ENDBRANCH   1  34
TORSDOF 5
