REMARK  Name = 
REMARK  8 active torsions:
REMARK  status: ('A' for Active; 'I' for Inactive)
REMARK    1  A    between atoms: C_1  and  C_2
REMARK    2  A    between atoms: C_2  and  C_3
REMARK    3  A    between atoms: C_2  and  C_4
REMARK    4  A    between atoms: C_2  and  C_5
REMARK    5  A    between atoms: C_8  and  S_9
REMARK    6  A    between atoms: S_9  and  C_10
REMARK    7  A    between atoms: C_10  and  C_11
REMARK    8  A    between atoms: N_22  and  N_23
REMARK                            x       y       z     vdW  Elec       q    Type
REMARK                         _______ _______ _______ _____ _____    ______ ____
ROOT
ATOM      1  C   UNL     1      -0.711  -2.809  -2.165  0.00  0.00    +0.000 A 
ATOM      2  N   UNL     1      -0.176  -3.252  -1.037  0.00  0.00    +0.000 NA
ATOM      3  N   UNL     1       0.016  -2.190  -0.184  0.00  0.00    +0.000 NA
ATOM      4  C   UNL     1      -0.411  -1.112  -0.798  0.00  0.00    +0.000 A 
ATOM      5  N   UNL     1      -0.882  -1.442  -2.050  0.00  0.00    +0.000 N 
ENDROOT
BRANCH   5   6
ATOM      6  N   UNL     1      -1.449  -0.543  -3.017  0.00  0.00    +0.000 N 
ATOM      7  H   UNL     1      -1.757   0.316  -2.560  0.00  0.00    +0.000 HD
ATOM      8  H   UNL     1      -2.284  -0.933  -3.447  0.00  0.00    +0.000 HD
ENDBRANCH   5   6
BRANCH   1   9
ATOM      9  C   UNL     1      -1.137  -3.709  -3.317  0.00  0.00    +0.000 C 
BRANCH   9  10
ATOM     10  C   UNL     1      -2.635  -4.035  -3.179  0.00  0.00    +0.000 C 
ATOM     11  H   UNL     1      -2.975  -4.692  -3.988  0.00  0.00    +0.000 HD
ATOM     12  H   UNL     1      -3.251  -3.129  -3.205  0.00  0.00    +0.000 HD
ATOM     13  H   UNL     1      -2.843  -4.543  -2.230  0.00  0.00    +0.000 HD
ENDBRANCH   9  10
BRANCH   9  14
ATOM     14  C   UNL     1      -0.348  -5.038  -3.244  0.00  0.00    +0.000 C 
ATOM     15  H   UNL     1      -0.645  -5.722  -4.048  0.00  0.00    +0.000 HD
ATOM     16  H   UNL     1      -0.518  -5.560  -2.296  0.00  0.00    +0.000 HD
ATOM     17  H   UNL     1       0.730  -4.863  -3.338  0.00  0.00    +0.000 HD
ENDBRANCH   9  14
BRANCH   9  18
ATOM     18  C   UNL     1      -0.860  -3.110  -4.708  0.00  0.00    +0.000 C 
ATOM     19  H   UNL     1      -1.042  -3.853  -5.494  0.00  0.00    +0.000 HD
ATOM     20  H   UNL     1       0.179  -2.776  -4.803  0.00  0.00    +0.000 HD
ATOM     21  H   UNL     1      -1.512  -2.264  -4.942  0.00  0.00    +0.000 HD
ENDBRANCH   9  18
ENDBRANCH   1   9
BRANCH   4  22
ATOM     22  S   UNL     1      -0.425   0.502  -0.158  0.00  0.00    +0.000 S 
BRANCH  22  23
ATOM     23  C   UNL     1       0.289   0.210   1.493  0.00  0.00    +0.000 C 
ATOM     24  H   UNL     1       1.280  -0.245   1.374  0.00  0.00    +0.000 HD
ATOM     25  H   UNL     1      -0.312  -0.527   2.035  0.00  0.00    +0.000 HD
BRANCH  23  26
ATOM     26  C   UNL     1       0.431   1.482   2.305  0.00  0.00    +0.000 A 
ATOM     27  C   UNL     1       1.632   2.214   2.208  0.00  0.00    +0.000 A 
ATOM     28  C   UNL     1       1.826   3.387   2.941  0.00  0.00    +0.000 A 
ATOM     29  C   UNL     1       0.834   3.841   3.809  0.00  0.00    +0.000 A 
ATOM     30  C   UNL     1      -0.370   3.148   3.905  0.00  0.00    +0.000 A 
ATOM     31  C   UNL     1      -0.573   1.978   3.157  0.00  0.00    +0.000 A 
ATOM     32 BR   UNL     1      -2.250   1.109   3.368  0.00  0.00    +0.000 Br
ATOM     33  O   UNL     1       0.965   4.965   4.584  0.00  0.00    +0.000 OA
ATOM     34  C   UNL     1       2.325   5.413   4.641  0.00  0.00    +0.000 C 
ATOM     35  C   UNL     1       2.964   5.378   3.262  0.00  0.00    +0.000 C 
ATOM     36  O   UNL     1       3.022   4.035   2.766  0.00  0.00    +0.000 OA
ATOM     37  H   UNL     1       2.429   1.873   1.548  0.00  0.00    +0.000 HD
ATOM     38  H   UNL     1      -1.141   3.520   4.575  0.00  0.00    +0.000 HD
ATOM     39  H   UNL     1       2.872   4.783   5.354  0.00  0.00    +0.000 HD
ATOM     40  H   UNL     1       2.321   6.438   5.029  0.00  0.00    +0.000 HD
ATOM     41  H   UNL     1       3.988   5.759   3.310  0.00  0.00    +0.000 HD
ATOM     42  H   UNL     1       2.403   5.991   2.546  0.00  0.00    +0.000 HD
ENDBRANCH  23  26
ENDBRANCH  22  23
ENDBRANCH   4  22
TORSDOF 8
