
 OpenBabel01112423073D

 38 40  0  0  0  0  0  0  0  0999 V2000
    1.9530   -1.8989    0.4275 C   0  0  0  0  0  0  0  0  0  0  0  0
    1.1632   -1.4697   -0.7773 C   0  0  0  0  0  0  0  0  0  0  0  0
    1.8259   -0.8185   -1.8301 C   0  0  0  0  0  0  0  0  0  0  0  0
    1.1219   -0.3920   -2.9505 C   0  0  0  0  0  0  0  0  0  0  0  0
   -0.2420   -0.6174   -3.0026 C   0  0  0  0  0  0  0  0  0  0  0  0
   -0.8474   -1.2306   -1.9833 N   0  3  0  0  0  0  0  0  0  0  0  0
   -0.2245   -1.6742   -0.8782 C   0  0  0  0  0  0  0  0  0  0  0  0
   -1.0049   -2.2249    0.1425 N   0  0  0  0  0  0  0  0  0  0  0  0
   -2.3811   -2.5495    0.0466 C   0  0  0  0  0  0  0  0  0  0  0  0
   -3.0369   -2.1290   -1.0669 N   0  0  0  0  0  0  0  0  0  0  0  0
   -4.3589   -2.3696   -1.0939 C   0  0  0  0  0  0  0  0  0  0  0  0
   -5.0654   -2.9665   -0.1382 N   0  0  0  0  0  0  0  0  0  0  0  0
   -4.4080   -3.3569    0.9687 C   0  0  0  0  0  0  0  0  0  0  0  0
   -5.1231   -3.9774    2.0172 N   0  0  0  0  0  0  0  0  0  0  0  0
   -6.3946   -4.5588    1.9208 C   0  0  0  0  0  0  0  0  0  0  0  0
   -6.7686   -5.3016    0.7992 C   0  0  0  0  0  0  0  0  0  0  0  0
   -8.0249   -5.8975    0.7463 C   0  0  0  0  0  0  0  0  0  0  0  0
   -8.8777   -5.7491    1.8276 C   0  0  0  0  0  0  0  0  0  0  0  0
  -10.4366   -6.4625    1.8129 Cl  0  0  0  0  0  0  0  0  0  0  0  0
   -8.4302   -5.0195    2.9182 C   0  0  0  0  0  0  0  0  0  0  0  0
   -7.2063   -4.4291    2.9905 N   0  0  0  0  0  0  0  0  0  0  0  0
   -3.0188   -3.2158    1.1027 C   0  0  0  0  0  0  0  0  0  0  0  0
   -2.3557   -3.5941    2.2947 N   0  0  0  0  0  0  0  0  0  0  0  0
    3.0304   -1.8519    0.2330 H   0  0  0  0  0  0  0  0  0  0  0  0
    1.7247   -2.9366    0.6909 H   0  0  0  0  0  0  0  0  0  0  0  0
    1.7306   -1.2470    1.2771 H   0  0  0  0  0  0  0  0  0  0  0  0
    2.8999   -0.6340   -1.7781 H   0  0  0  0  0  0  0  0  0  0  0  0
    1.6327    0.1152   -3.7666 H   0  0  0  0  0  0  0  0  0  0  0  0
   -0.8702   -0.3130   -3.8317 H   0  0  0  0  0  0  0  0  0  0  0  0
   -1.8611   -1.3877   -1.9975 H   0  0  0  0  0  0  0  0  0  0  0  0
   -0.5127   -2.8541    0.7633 H   0  0  0  0  0  0  0  0  0  0  0  0
   -4.9118   -2.0443   -1.9700 H   0  0  0  0  0  0  0  0  0  0  0  0
   -5.0828   -3.4378    2.8774 H   0  0  0  0  0  0  0  0  0  0  0  0
   -6.0873   -5.4226   -0.0361 H   0  0  0  0  0  0  0  0  0  0  0  0
   -8.3229   -6.4688   -0.1253 H   0  0  0  0  0  0  0  0  0  0  0  0
   -9.0586   -4.8824    3.7952 H   0  0  0  0  0  0  0  0  0  0  0  0
   -2.9396   -4.2334    2.8427 H   0  0  0  0  0  0  0  0  0  0  0  0
   -1.4364   -4.0016    2.1752 H   0  0  0  0  0  0  0  0  0  0  0  0
  1  2  1  0  0  0  0
  1 24  1  0  0  0  0
  1 25  1  0  0  0  0
  1 26  1  0  0  0  0
  2  3  1  0  0  0  0
  2  7  2  0  0  0  0
  3  4  2  0  0  0  0
  3 27  1  0  0  0  0
  4  5  1  0  0  0  0
  4 28  1  0  0  0  0
  5  6  2  0  0  0  0
  5 29  1  0  0  0  0
  6  7  1  0  0  0  0
  6 30  1  0  0  0  0
  7  8  1  0  0  0  0
  8  9  1  0  0  0  0
  8 31  1  0  0  0  0
  9 10  1  0  0  0  0
  9 22  2  0  0  0  0
 10 11  2  0  0  0  0
 11 12  1  0  0  0  0
 11 32  1  0  0  0  0
 12 13  2  0  0  0  0
 13 14  1  0  0  0  0
 13 22  1  0  0  0  0
 14 15  1  0  0  0  0
 14 33  1  0  0  0  0
 15 16  1  0  0  0  0
 15 21  2  0  0  0  0
 16 17  2  0  0  0  0
 16 34  1  0  0  0  0
 17 18  1  0  0  0  0
 17 35  1  0  0  0  0
 18 19  1  0  0  0  0
 18 20  2  0  0  0  0
 20 21  1  0  0  0  0
 20 36  1  0  0  0  0
 22 23  1  0  0  0  0
 23 37  1  0  0  0  0
 23 38  1  0  0  0  0
M  CHG  1   6   1
M  END
$$$$
