
 OpenBabel01112423143D

 53 56  0  0  1  0  0  0  0  0999 V2000
    2.9154   -2.2727   -1.3333 C   0  0  0  0  0  0  0  0  0  0  0  0
    2.5113   -2.1150    0.1309 C   0  0  2  0  0  0  0  0  0  0  0  0
    1.1043   -2.3784    0.2599 O   0  0  0  0  0  0  0  0  0  0  0  0
    0.3299   -1.2696    0.0385 C   0  0  0  0  0  0  0  0  0  0  0  0
   -1.0349   -1.4915   -0.1174 C   0  0  0  0  0  0  0  0  0  0  0  0
   -1.8800   -0.4260   -0.4266 C   0  0  0  0  0  0  0  0  0  0  0  0
   -1.3556    0.8569   -0.5836 C   0  0  0  0  0  0  0  0  0  0  0  0
    0.0098    1.0826   -0.3955 C   0  0  0  0  0  0  0  0  0  0  0  0
    0.8496    0.0210   -0.0527 C   0  0  0  0  0  0  0  0  0  0  0  0
    2.1637    0.3324    0.1602 O   0  0  0  0  0  0  0  0  0  0  0  0
    2.8898   -0.7477    0.7378 C   0  0  1  0  0  0  0  0  0  0  0  0
    2.7838   -0.8346    2.2721 C   0  0  0  0  0  0  0  0  0  0  0  0
    2.8192   -1.9390    2.8174 O   0  0  0  0  0  0  0  0  0  0  0  0
    2.7411    0.3839    2.9484 N   0  0  0  0  0  0  0  0  0  0  0  0
    2.5606    0.4955    4.3544 C   0  0  0  0  0  0  0  0  0  0  0  0
    2.6028   -0.6260    5.1950 C   0  0  0  0  0  0  0  0  0  0  0  0
    2.0427   -0.5977    6.4747 C   0  0  0  0  0  0  0  0  0  0  0  0
    1.5804    0.6054    6.9719 C   0  0  0  0  0  0  0  0  0  0  0  0
    1.0998    0.8649    8.3569 C   0  0  0  0  0  0  0  0  0  0  0  0
   -0.1860    1.7482    8.6029 C   0  0  0  0  0  0  0  0  0  0  0  0
   -1.4692    0.9553    8.2851 C   0  0  0  0  0  0  0  0  0  0  0  0
   -0.2615    2.1480   10.1039 C   0  0  0  0  0  0  0  0  0  0  0  0
   -0.2864    3.0823    7.8135 C   0  0  0  0  0  0  0  0  0  0  0  0
    2.2226    1.1124    9.0648 C   0  0  0  0  0  0  0  0  0  0  0  0
    2.8059    2.4318    8.5556 C   0  0  0  0  0  0  0  0  0  0  0  0
    3.4474    3.1390    9.3093 O   0  0  0  0  0  0  0  0  0  0  0  0
    2.6195    2.7091    7.2074 N   0  0  0  0  0  0  0  0  0  0  0  0
    2.0931    1.7344    6.3267 C   0  0  0  0  0  0  0  0  0  0  0  0
    2.3649    1.7361    4.9602 C   0  0  0  0  0  0  0  0  0  0  0  0
    2.6486   -3.2767   -1.6846 H   0  0  0  0  0  0  0  0  0  0  0  0
    3.9932   -2.1370   -1.4608 H   0  0  0  0  0  0  0  0  0  0  0  0
    2.3906   -1.5664   -1.9831 H   0  0  0  0  0  0  0  0  0  0  0  0
    3.0206   -2.9200    0.6764 H   0  0  0  0  0  0  0  0  0  0  0  0
   -1.4389   -2.4956   -0.0109 H   0  0  0  0  0  0  0  0  0  0  0  0
   -2.9445   -0.5990   -0.5599 H   0  0  0  0  0  0  0  0  0  0  0  0
   -2.0098    1.6835   -0.8470 H   0  0  0  0  0  0  0  0  0  0  0  0
    0.4173    2.0816   -0.5154 H   0  0  0  0  0  0  0  0  0  0  0  0
    3.9521   -0.5593    0.5371 H   0  0  0  0  0  0  0  0  0  0  0  0
    2.6070    1.2187    2.3856 H   0  0  0  0  0  0  0  0  0  0  0  0
    3.0816   -1.5480    4.8821 H   0  0  0  0  0  0  0  0  0  0  0  0
    2.0718   -1.4986    7.0828 H   0  0  0  0  0  0  0  0  0  0  0  0
   -1.5421    0.0396    8.8796 H   0  0  0  0  0  0  0  0  0  0  0  0
   -1.5286    0.6897    7.2245 H   0  0  0  0  0  0  0  0  0  0  0  0
   -2.3596    1.5594    8.5133 H   0  0  0  0  0  0  0  0  0  0  0  0
   -0.3044    1.2665   10.7529 H   0  0  0  0  0  0  0  0  0  0  0  0
   -1.1498    2.7565   10.3093 H   0  0  0  0  0  0  0  0  0  0  0  0
    0.6022    2.7513   10.4089 H   0  0  0  0  0  0  0  0  0  0  0  0
   -0.2671    2.9313    6.7302 H   0  0  0  0  0  0  0  0  0  0  0  0
    0.5059    3.7852    8.0910 H   0  0  0  0  0  0  0  0  0  0  0  0
   -1.2263    3.6023    8.0368 H   0  0  0  0  0  0  0  0  0  0  0  0
    3.0456    0.3965    9.0598 H   0  0  0  0  0  0  0  0  0  0  0  0
    3.1037    3.5305    6.8502 H   0  0  0  0  0  0  0  0  0  0  0  0
    2.5112    2.6680    4.4289 H   0  0  0  0  0  0  0  0  0  0  0  0
  1 30  1  0  0  0  0
  1 31  1  0  0  0  0
  1 32  1  0  0  0  0
  2  3  1  0  0  0  0
  2 11  1  0  0  0  0
  2  1  1  0  0  0  0
  2 33  1  1  0  0  0
  3  4  1  0  0  0  0
  4  5  1  0  0  0  0
  4  9  2  0  0  0  0
  5  6  2  0  0  0  0
  5 34  1  0  0  0  0
  6  7  1  0  0  0  0
  6 35  1  0  0  0  0
  7  8  2  0  0  0  0
  7 36  1  0  0  0  0
  8  9  1  0  0  0  0
  8 37  1  0  0  0  0
  9 10  1  0  0  0  0
 10 11  1  0  0  0  0
 11 12  1  0  0  0  0
 11 38  1  6  0  0  0
 12 13  2  0  0  0  0
 12 14  1  0  0  0  0
 14 15  1  0  0  0  0
 14 39  1  0  0  0  0
 15 16  1  0  0  0  0
 15 29  2  0  0  0  0
 16 17  2  0  0  0  0
 16 40  1  0  0  0  0
 17 18  1  0  0  0  0
 17 41  1  0  0  0  0
 18 19  1  0  0  0  0
 18 28  2  0  0  0  0
 19 20  1  0  0  0  0
 19 24  2  0  0  0  0
 20 21  1  0  0  0  0
 20 22  1  0  0  0  0
 20 23  1  0  0  0  0
 21 42  1  0  0  0  0
 21 43  1  0  0  0  0
 21 44  1  0  0  0  0
 22 45  1  0  0  0  0
 22 46  1  0  0  0  0
 22 47  1  0  0  0  0
 23 48  1  0  0  0  0
 23 49  1  0  0  0  0
 23 50  1  0  0  0  0
 24 25  1  0  0  0  0
 24 51  1  0  0  0  0
 25 26  2  0  0  0  0
 25 27  1  0  0  0  0
 27 28  1  0  0  0  0
 27 52  1  0  0  0  0
 28 29  1  0  0  0  0
 29 53  1  0  0  0  0
M  END
$$$$
