
 OpenBabel01112423063D

 39 41  0  0  0  0  0  0  0  0999 V2000
    0.9568   -0.1645   -0.5047 N   0  0  0  0  0  0  0  0  0  0  0  0
    2.3383   -0.1121   -0.2720 C   0  0  0  0  0  0  0  0  0  0  0  0
    3.0957   -1.2650   -0.0169 C   0  0  0  0  0  0  0  0  0  0  0  0
    2.4646   -2.5156   -0.0240 N   0  0  0  0  0  0  0  0  0  0  0  0
    3.1322   -3.6100    0.6839 C   0  0  0  0  0  0  0  0  0  0  0  0
    3.0782   -3.4479    2.2149 C   0  0  0  0  0  0  0  0  0  0  0  0
    1.6723   -3.3624    2.7524 C   0  0  0  0  0  0  0  0  0  0  0  0
    0.8517   -4.3972    3.1541 C   0  0  0  0  0  0  0  0  0  0  0  0
   -0.4282   -3.9375    3.5890 C   0  0  0  0  0  0  0  0  0  0  0  0
   -0.5394   -2.5666    3.5154 C   0  0  0  0  0  0  0  0  0  0  0  0
    0.9036   -1.8405    2.9571 S   0  0  0  0  0  0  0  0  0  0  0  0
    4.4186   -1.2214    0.2251 N   0  0  0  0  0  0  0  0  0  0  0  0
    4.9948   -0.0287    0.2691 C   0  0  0  0  0  0  0  0  0  0  0  0
    4.3737    1.1571    0.1411 N   0  0  0  0  0  0  0  0  0  0  0  0
    3.0400    1.1010   -0.0955 C   0  0  0  0  0  0  0  0  0  0  0  0
    2.3521    2.3509   -0.1675 N   0  0  0  0  0  0  0  0  0  0  0  0
    3.0100    3.5036   -0.6182 C   0  0  0  0  0  0  0  0  0  0  0  0
    2.3322    4.5830   -1.1898 C   0  0  0  0  0  0  0  0  0  0  0  0
    3.0681    5.5568   -1.8555 C   0  0  0  0  0  0  0  0  0  0  0  0
    4.4582    5.4874   -1.8806 C   0  0  0  0  0  0  0  0  0  0  0  0
    5.0892    4.4722   -1.1793 C   0  0  0  0  0  0  0  0  0  0  0  0
    4.3494    3.5398   -0.5765 N   0  3  0  0  0  0  0  0  0  0  0  0
    0.4495   -0.5301    0.3083 H   0  0  0  0  0  0  0  0  0  0  0  0
    0.4599    0.5943   -0.9300 H   0  0  0  0  0  0  0  0  0  0  0  0
    2.1692   -2.7491   -0.9676 H   0  0  0  0  0  0  0  0  0  0  0  0
    4.1791   -3.7268    0.3605 H   0  0  0  0  0  0  0  0  0  0  0  0
    2.6327   -4.5489    0.4116 H   0  0  0  0  0  0  0  0  0  0  0  0
    3.6599   -2.5741    2.5320 H   0  0  0  0  0  0  0  0  0  0  0  0
    3.5703   -4.3161    2.6718 H   0  0  0  0  0  0  0  0  0  0  0  0
    1.1440   -5.4385    3.1336 H   0  0  0  0  0  0  0  0  0  0  0  0
   -1.2270   -4.5821    3.9356 H   0  0  0  0  0  0  0  0  0  0  0  0
   -1.3933   -1.9587    3.7735 H   0  0  0  0  0  0  0  0  0  0  0  0
    6.0707   -0.0111    0.4059 H   0  0  0  0  0  0  0  0  0  0  0  0
    1.4572    2.2256   -0.6201 H   0  0  0  0  0  0  0  0  0  0  0  0
    1.2451    4.6274   -1.1903 H   0  0  0  0  0  0  0  0  0  0  0  0
    2.5555    6.3548   -2.3955 H   0  0  0  0  0  0  0  0  0  0  0  0
    5.0408    6.2068   -2.4491 H   0  0  0  0  0  0  0  0  0  0  0  0
    6.1620    4.3457   -1.1306 H   0  0  0  0  0  0  0  0  0  0  0  0
    4.7874    2.7529   -0.0861 H   0  0  0  0  0  0  0  0  0  0  0  0
  1  2  1  0  0  0  0
  1 23  1  0  0  0  0
  1 24  1  0  0  0  0
  2  3  1  0  0  0  0
  2 15  2  0  0  0  0
  3  4  1  0  0  0  0
  3 12  2  0  0  0  0
  4  5  1  0  0  0  0
  4 25  1  0  0  0  0
  5  6  1  0  0  0  0
  5 26  1  0  0  0  0
  5 27  1  0  0  0  0
  6  7  1  0  0  0  0
  6 28  1  0  0  0  0
  6 29  1  0  0  0  0
  7  8  2  0  0  0  0
  7 11  1  0  0  0  0
  8  9  1  0  0  0  0
  8 30  1  0  0  0  0
  9 10  2  0  0  0  0
  9 31  1  0  0  0  0
 10 11  1  0  0  0  0
 10 32  1  0  0  0  0
 12 13  1  0  0  0  0
 13 14  2  0  0  0  0
 13 33  1  0  0  0  0
 14 15  1  0  0  0  0
 15 16  1  0  0  0  0
 16 17  1  0  0  0  0
 16 34  1  0  0  0  0
 17 18  1  0  0  0  0
 17 22  2  0  0  0  0
 18 19  2  0  0  0  0
 18 35  1  0  0  0  0
 19 20  1  0  0  0  0
 19 36  1  0  0  0  0
 20 21  2  0  0  0  0
 20 37  1  0  0  0  0
 21 22  1  0  0  0  0
 21 38  1  0  0  0  0
 22 39  1  0  0  0  0
M  CHG  1  22   1
M  END
$$$$
