MODEL 1
REMARK VINA RESULT:   -11.740      0.000      0.000
REMARK INTER + INTRA:         -16.571
REMARK INTER:                 -15.858
REMARK INTRA:                  -0.713
REMARK UNBOUND:                -0.713
REMARK  Name = 
REMARK  7 active torsions:
REMARK  status: ('A' for Active; 'I' for Inactive)
REMARK    1  A    between atoms: C_1  and  C_2
REMARK    2  A    between atoms: C_2  and  C_3
REMARK    3  A    between atoms: C_3  and  C_4
REMARK    4  A    between atoms: C_3  and  C_5
REMARK    5  A    between atoms: C_8  and  N_9
REMARK    6  A    between atoms: C_10  and  C_12
REMARK    7  A    between atoms: C_12  and  N_13
REMARK                            x       y       z     vdW  Elec       q    Type
REMARK                         _______ _______ _______ _____ _____    ______ ____
ROOT
ATOM      1  N   UNL     1      -8.764  -7.170  20.090  0.00  0.00    +0.000 N 
ATOM      2  C   UNL     1      -7.810  -6.206  19.889  0.00  0.00    +0.000 C 
ATOM      3  O   UNL     1      -6.902  -6.203  19.061  0.00  0.00    +0.000 OA
ATOM      4  H   UNL     1      -9.365  -7.074  20.903  0.00  0.00    +0.000 HD
ENDROOT
BRANCH   1   8
ATOM      5  C   UNL     1      -8.929 -10.734  17.903  0.00  0.00    +0.000 A 
ATOM      6  C   UNL     1      -9.414  -9.557  17.331  0.00  0.00    +0.000 A 
ATOM      7  C   UNL     1      -9.392  -8.377  18.055  0.00  0.00    +0.000 A 
ATOM      8  C   UNL     1      -8.869  -8.348  19.346  0.00  0.00    +0.000 A 
ATOM      9  C   UNL     1      -8.409  -9.519  19.940  0.00  0.00    +0.000 A 
ATOM     10  C   UNL     1      -8.444 -10.709  19.219  0.00  0.00    +0.000 A 
ATOM     11  H   UNL     1      -9.820  -9.545  16.322  0.00  0.00    +0.000 HD
ATOM     12  H   UNL     1      -9.783  -7.498  17.557  0.00  0.00    +0.000 HD
ATOM     13  H   UNL     1      -8.009  -9.521  20.950  0.00  0.00    +0.000 HD
ATOM     14  H   UNL     1      -8.081 -11.616  19.693  0.00  0.00    +0.000 HD
BRANCH   5  15
ATOM     15  C   UNL     1      -8.949 -11.999  17.079  0.00  0.00    +0.000 C 
ATOM     16  H   UNL     1      -9.988 -12.341  16.982  0.00  0.00    +0.000 HD
BRANCH  15  17
ATOM     17  C   UNL     1      -8.454 -11.694  15.664  0.00  0.00    +0.000 C 
ATOM     18  H   UNL     1      -8.571 -10.635  15.405  0.00  0.00    +0.000 HD
ATOM     19  H   UNL     1      -9.020 -12.276  14.925  0.00  0.00    +0.000 HD
ATOM     20  H   UNL     1      -7.399 -11.955  15.557  0.00  0.00    +0.000 HD
ENDBRANCH  15  17
BRANCH  15  21
ATOM     21  C   UNL     1      -8.148 -13.129  17.745  0.00  0.00    +0.000 C 
ATOM     22  H   UNL     1      -7.628 -13.697  16.967  0.00  0.00    +0.000 HD
ATOM     23  H   UNL     1      -7.378 -12.724  18.414  0.00  0.00    +0.000 HD
BRANCH  21  24
ATOM     24  C   UNL     1      -9.029 -14.096  18.535  0.00  0.00    +0.000 C 
ATOM     25  H   UNL     1     -10.033 -14.128  18.102  0.00  0.00    +0.000 HD
ATOM     26  H   UNL     1      -9.121 -13.784  19.581  0.00  0.00    +0.000 HD
ATOM     27  H   UNL     1      -8.630 -15.115  18.515  0.00  0.00    +0.000 HD
ENDBRANCH  21  24
ENDBRANCH  15  21
ENDBRANCH   5  15
ENDBRANCH   1   8
BRANCH   2  28
ATOM     28  C   UNL     1      -7.764  -5.213  20.991  0.00  0.00    +0.000 C 
ATOM     29  H   UNL     1      -7.209  -5.722  21.775  0.00  0.00    +0.000 HD
ATOM     30  H   UNL     1      -8.797  -5.098  21.355  0.00  0.00    +0.000 HD
BRANCH  28  31
ATOM     31  N   UNL     1      -7.211  -3.898  20.746  0.00  0.00    +0.000 N 
ATOM     32  C   UNL     1      -5.915  -3.590  21.110  0.00  0.00    +0.000 C 
ATOM     33  O   UNL     1      -4.888  -4.104  20.696  0.00  0.00    +0.000 OA
ATOM     34  N   UNL     1      -5.975  -2.535  22.037  0.00  0.00    +0.000 N 
ATOM     35  C   UNL     1      -7.284  -2.524  22.610  0.00  0.00    +0.000 C 
ATOM     36  C   UNL     1      -7.427  -3.645  23.697  0.00  0.00    +0.000 C 
ATOM     37  C   UNL     1      -8.876  -3.511  24.134  0.00  0.00    +0.000 C 
ATOM     38  C   UNL     1      -8.805  -2.030  24.341  0.00  0.00    +0.000 A 
ATOM     39  C   UNL     1      -9.358  -1.345  25.397  0.00  0.00    +0.000 A 
ATOM     40  C   UNL     1      -9.047   0.000  25.501  0.00  0.00    +0.000 A 
ATOM     41  C   UNL     1      -8.258   0.639  24.523  0.00  0.00    +0.000 A 
ATOM     42  C   UNL     1      -7.678  -0.075  23.466  0.00  0.00    +0.000 A 
ATOM     43  C   UNL     1      -7.911  -1.425  23.410  0.00  0.00    +0.000 A 
ATOM     44  C   UNL     1      -7.977  -2.913  21.316  0.00  0.00    +0.000 C 
ATOM     45  O   UNL     1      -9.044  -2.520  20.868  0.00  0.00    +0.000 OA
ATOM     46  H   UNL     1      -5.151  -2.050  22.370  0.00  0.00    +0.000 HD
ATOM     47  H   UNL     1      -6.756  -3.428  24.546  0.00  0.00    +0.000 HD
ATOM     48  H   UNL     1      -7.168  -4.660  23.433  0.00  0.00    +0.000 HD
ATOM     49  H   UNL     1      -9.116  -4.090  25.028  0.00  0.00    +0.000 HD
ATOM     50  H   UNL     1      -9.584  -3.764  23.333  0.00  0.00    +0.000 HD
ATOM     51  H   UNL     1      -9.933  -1.861  26.158  0.00  0.00    +0.000 HD
ATOM     52  H   UNL     1      -9.402   0.559  26.368  0.00  0.00    +0.000 HD
ATOM     53  H   UNL     1      -8.073   1.702  24.618  0.00  0.00    +0.000 HD
ATOM     54  H   UNL     1      -7.064   0.434  22.727  0.00  0.00    +0.000 HD
ENDBRANCH  28  31
ENDBRANCH   2  28
TORSDOF 7
ENDMDL
MODEL 2
REMARK VINA RESULT:   -10.813      2.015      9.956
REMARK INTER + INTRA:         -15.319
REMARK INTER:                 -15.100
REMARK INTRA:                  -0.219
REMARK UNBOUND:                -0.713
REMARK  Name = 
REMARK  7 active torsions:
REMARK  status: ('A' for Active; 'I' for Inactive)
REMARK    1  A    between atoms: C_1  and  C_2
REMARK    2  A    between atoms: C_2  and  C_3
REMARK    3  A    between atoms: C_3  and  C_4
REMARK    4  A    between atoms: C_3  and  C_5
REMARK    5  A    between atoms: C_8  and  N_9
REMARK    6  A    between atoms: C_10  and  C_12
REMARK    7  A    between atoms: C_12  and  N_13
REMARK                            x       y       z     vdW  Elec       q    Type
REMARK                         _______ _______ _______ _____ _____    ______ ____
ROOT
ATOM      1  N   UNL     1      -8.544  -4.036  20.635  0.00  0.00    +0.000 N 
ATOM      2  C   UNL     1      -8.930  -4.068  19.319  0.00  0.00    +0.000 C 
ATOM      3  O   UNL     1      -9.360  -3.142  18.635  0.00  0.00    +0.000 OA
ATOM      4  H   UNL     1      -8.333  -4.921  21.084  0.00  0.00    +0.000 HD
ENDROOT
BRANCH   1   8
ATOM      5  C   UNL     1      -8.535  -0.696  23.155  0.00  0.00    +0.000 A 
ATOM      6  C   UNL     1      -9.708  -1.042  22.482  0.00  0.00    +0.000 A 
ATOM      7  C   UNL     1      -9.716  -2.128  21.624  0.00  0.00    +0.000 A 
ATOM      8  C   UNL     1      -8.567  -2.893  21.439  0.00  0.00    +0.000 A 
ATOM      9  C   UNL     1      -7.383  -2.542  22.079  0.00  0.00    +0.000 A 
ATOM     10  C   UNL     1      -7.369  -1.443  22.932  0.00  0.00    +0.000 A 
ATOM     11  H   UNL     1     -10.623  -0.470  22.614  0.00  0.00    +0.000 HD
ATOM     12  H   UNL     1     -10.655  -2.346  21.131  0.00  0.00    +0.000 HD
ATOM     13  H   UNL     1      -6.473  -3.118  21.940  0.00  0.00    +0.000 HD
ATOM     14  H   UNL     1      -6.439  -1.179  23.427  0.00  0.00    +0.000 HD
BRANCH   5  15
ATOM     15  C   UNL     1      -8.565   0.482  24.101  0.00  0.00    +0.000 C 
ATOM     16  H   UNL     1      -7.607   1.014  24.032  0.00  0.00    +0.000 HD
BRANCH  15  17
ATOM     17  C   UNL     1      -9.646   1.468  23.654  0.00  0.00    +0.000 C 
ATOM     18  H   UNL     1     -10.530   0.958  23.254  0.00  0.00    +0.000 HD
ATOM     19  H   UNL     1      -9.264   2.127  22.864  0.00  0.00    +0.000 HD
ATOM     20  H   UNL     1      -9.967   2.095  24.488  0.00  0.00    +0.000 HD
ENDBRANCH  15  17
BRANCH  15  21
ATOM     21  C   UNL     1      -8.748   0.039  25.561  0.00  0.00    +0.000 C 
ATOM     22  H   UNL     1      -7.798   0.170  26.089  0.00  0.00    +0.000 HD
ATOM     23  H   UNL     1      -9.487   0.666  26.073  0.00  0.00    +0.000 HD
BRANCH  21  24
ATOM     24  C   UNL     1      -9.167  -1.425  25.690  0.00  0.00    +0.000 C 
ATOM     25  H   UNL     1      -9.676  -1.587  26.645  0.00  0.00    +0.000 HD
ATOM     26  H   UNL     1      -8.299  -2.092  25.651  0.00  0.00    +0.000 HD
ATOM     27  H   UNL     1      -9.861  -1.719  24.895  0.00  0.00    +0.000 HD
ENDBRANCH  21  24
ENDBRANCH  15  21
ENDBRANCH   5  15
ENDBRANCH   1   8
BRANCH   2  28
ATOM     28  C   UNL     1      -9.067  -5.452  18.801  0.00  0.00    +0.000 C 
ATOM     29  H   UNL     1      -9.809  -5.902  19.456  0.00  0.00    +0.000 HD
ATOM     30  H   UNL     1      -8.112  -5.961  19.005  0.00  0.00    +0.000 HD
BRANCH  28  31
ATOM     31  N   UNL     1      -9.416  -5.664  17.412  0.00  0.00    +0.000 N 
ATOM     32  C   UNL     1     -10.736  -5.781  17.019  0.00  0.00    +0.000 C 
ATOM     33  O   UNL     1     -11.613  -4.939  17.116  0.00  0.00    +0.000 OA
ATOM     34  N   UNL     1     -10.894  -7.053  16.441  0.00  0.00    +0.000 N 
ATOM     35  C   UNL     1      -9.835  -7.888  16.914  0.00  0.00    +0.000 C 
ATOM     36  C   UNL     1     -10.124  -8.384  18.373  0.00  0.00    +0.000 C 
ATOM     37  C   UNL     1      -8.881  -9.190  18.711  0.00  0.00    +0.000 C 
ATOM     38  C   UNL     1      -8.905  -9.988  17.445  0.00  0.00    +0.000 A 
ATOM     39  C   UNL     1      -8.665 -11.338  17.349  0.00  0.00    +0.000 A 
ATOM     40  C   UNL     1      -8.894 -11.927  16.117  0.00  0.00    +0.000 A 
ATOM     41  C   UNL     1      -9.285 -11.153  15.005  0.00  0.00    +0.000 A 
ATOM     42  C   UNL     1      -9.553  -9.783  15.121  0.00  0.00    +0.000 A 
ATOM     43  C   UNL     1      -9.414  -9.214  16.361  0.00  0.00    +0.000 A 
ATOM     44  C   UNL     1      -8.800  -6.777  16.899  0.00  0.00    +0.000 C 
ATOM     45  O   UNL     1      -7.620  -6.831  16.585  0.00  0.00    +0.000 OA
ATOM     46  H   UNL     1     -11.742  -7.339  15.970  0.00  0.00    +0.000 HD
ATOM     47  H   UNL     1     -11.011  -9.041  18.374  0.00  0.00    +0.000 HD
ATOM     48  H   UNL     1     -10.360  -7.652  19.133  0.00  0.00    +0.000 HD
ATOM     49  H   UNL     1      -8.978  -9.776  19.626  0.00  0.00    +0.000 HD
ATOM     50  H   UNL     1      -7.977  -8.568  18.768  0.00  0.00    +0.000 HD
ATOM     51  H   UNL     1      -8.398 -11.922  18.223  0.00  0.00    +0.000 HD
ATOM     52  H   UNL     1      -8.791 -13.009  16.020  0.00  0.00    +0.000 HD
ATOM     53  H   UNL     1      -9.412 -11.646  14.049  0.00  0.00    +0.000 HD
ATOM     54  H   UNL     1      -9.864  -9.205  14.254  0.00  0.00    +0.000 HD
ENDBRANCH  28  31
ENDBRANCH   2  28
TORSDOF 7
ENDMDL
MODEL 3
REMARK VINA RESULT:   -10.237      1.798      9.759
REMARK INTER + INTRA:         -14.541
REMARK INTER:                 -14.414
REMARK INTRA:                  -0.127
REMARK UNBOUND:                -0.713
REMARK  Name = 
REMARK  7 active torsions:
REMARK  status: ('A' for Active; 'I' for Inactive)
REMARK    1  A    between atoms: C_1  and  C_2
REMARK    2  A    between atoms: C_2  and  C_3
REMARK    3  A    between atoms: C_3  and  C_4
REMARK    4  A    between atoms: C_3  and  C_5
REMARK    5  A    between atoms: C_8  and  N_9
REMARK    6  A    between atoms: C_10  and  C_12
REMARK    7  A    between atoms: C_12  and  N_13
REMARK                            x       y       z     vdW  Elec       q    Type
REMARK                         _______ _______ _______ _____ _____    ______ ____
ROOT
ATOM      1  N   UNL     1      -8.859  -3.596  20.438  0.00  0.00    +0.000 N 
ATOM      2  C   UNL     1      -9.204  -3.466  19.116  0.00  0.00    +0.000 C 
ATOM      3  O   UNL     1      -9.542  -2.446  18.521  0.00  0.00    +0.000 OA
ATOM      4  H   UNL     1      -8.728  -4.536  20.799  0.00  0.00    +0.000 HD
ENDROOT
BRANCH   1   8
ATOM      5  C   UNL     1      -8.670  -0.532  23.281  0.00  0.00    +0.000 A 
ATOM      6  C   UNL     1      -9.882  -0.801  22.644  0.00  0.00    +0.000 A 
ATOM      7  C   UNL     1      -9.951  -1.793  21.681  0.00  0.00    +0.000 A 
ATOM      8  C   UNL     1      -8.824  -2.542  21.354  0.00  0.00    +0.000 A 
ATOM      9  C   UNL     1      -7.602  -2.266  21.959  0.00  0.00    +0.000 A 
ATOM     10  C   UNL     1      -7.527  -1.260  22.918  0.00  0.00    +0.000 A 
ATOM     11  H   UNL     1     -10.782  -0.240  22.884  0.00  0.00    +0.000 HD
ATOM     12  H   UNL     1     -10.919  -1.953  21.223  0.00  0.00    +0.000 HD
ATOM     13  H   UNL     1      -6.707  -2.830  21.710  0.00  0.00    +0.000 HD
ATOM     14  H   UNL     1      -6.568  -1.053  23.383  0.00  0.00    +0.000 HD
BRANCH   5  15
ATOM     15  C   UNL     1      -8.634   0.542  24.342  0.00  0.00    +0.000 C 
ATOM     16  H   UNL     1      -7.650   1.031  24.316  0.00  0.00    +0.000 HD
BRANCH  15  17
ATOM     17  C   UNL     1      -9.667   1.621  24.011  0.00  0.00    +0.000 C 
ATOM     18  H   UNL     1     -10.656   1.196  23.804  0.00  0.00    +0.000 HD
ATOM     19  H   UNL     1      -9.361   2.187  23.122  0.00  0.00    +0.000 HD
ATOM     20  H   UNL     1      -9.769   2.327  24.839  0.00  0.00    +0.000 HD
ENDBRANCH  15  17
BRANCH  15  21
ATOM     21  C   UNL     1      -8.827  -0.038  25.751  0.00  0.00    +0.000 C 
ATOM     22  H   UNL     1      -7.905   0.112  26.322  0.00  0.00    +0.000 HD
ATOM     23  H   UNL     1      -9.625   0.490  26.289  0.00  0.00    +0.000 HD
BRANCH  21  24
ATOM     24  C   UNL     1      -9.145  -1.532  25.740  0.00  0.00    +0.000 C 
ATOM     25  H   UNL     1      -8.908  -1.959  24.761  0.00  0.00    +0.000 HD
ATOM     26  H   UNL     1     -10.207  -1.714  25.941  0.00  0.00    +0.000 HD
ATOM     27  H   UNL     1      -8.558  -2.077  26.487  0.00  0.00    +0.000 HD
ENDBRANCH  21  24
ENDBRANCH  15  21
ENDBRANCH   5  15
ENDBRANCH   1   8
BRANCH   2  28
ATOM     28  C   UNL     1      -9.425  -4.777  18.456  0.00  0.00    +0.000 C 
ATOM     29  H   UNL     1      -8.723  -4.771  17.626  0.00  0.00    +0.000 HD
ATOM     30  H   UNL     1     -10.435  -4.743  18.018  0.00  0.00    +0.000 HD
BRANCH  28  31
ATOM     31  N   UNL     1      -9.296  -5.996  19.226  0.00  0.00    +0.000 N 
ATOM     32  C   UNL     1      -8.058  -6.449  19.640  0.00  0.00    +0.000 C 
ATOM     33  O   UNL     1      -7.278  -5.886  20.391  0.00  0.00    +0.000 OA
ATOM     34  N   UNL     1      -7.856  -7.716  19.064  0.00  0.00    +0.000 N 
ATOM     35  C   UNL     1      -8.717  -7.827  17.929  0.00  0.00    +0.000 C 
ATOM     36  C   UNL     1      -8.130  -7.045  16.703  0.00  0.00    +0.000 C 
ATOM     37  C   UNL     1      -9.197  -7.230  15.638  0.00  0.00    +0.000 C 
ATOM     38  C   UNL     1      -9.298  -8.713  15.823  0.00  0.00    +0.000 A 
ATOM     39  C   UNL     1      -9.396  -9.638  14.811  0.00  0.00    +0.000 A 
ATOM     40  C   UNL     1      -9.315 -10.972  15.174  0.00  0.00    +0.000 A 
ATOM     41  C   UNL     1      -9.209 -11.349  16.528  0.00  0.00    +0.000 A 
ATOM     42  C   UNL     1      -9.083 -10.398  17.548  0.00  0.00    +0.000 A 
ATOM     43  C   UNL     1      -9.073  -9.076  17.184  0.00  0.00    +0.000 A 
ATOM     44  C   UNL     1      -9.860  -7.066  18.578  0.00  0.00    +0.000 C 
ATOM     45  O   UNL     1     -11.062  -7.272  18.501  0.00  0.00    +0.000 OA
ATOM     46  H   UNL     1      -7.074  -8.309  19.306  0.00  0.00    +0.000 HD
ATOM     47  H   UNL     1      -7.186  -7.518  16.378  0.00  0.00    +0.000 HD
ATOM     48  H   UNL     1      -7.853  -6.009  16.834  0.00  0.00    +0.000 HD
ATOM     49  H   UNL     1      -8.879  -6.912  14.644  0.00  0.00    +0.000 HD
ATOM     50  H   UNL     1     -10.143  -6.736  15.897  0.00  0.00    +0.000 HD
ATOM     51  H   UNL     1      -9.442  -9.328  13.773  0.00  0.00    +0.000 HD
ATOM     52  H   UNL     1      -9.309 -11.733  14.392  0.00  0.00    +0.000 HD
ATOM     53  H   UNL     1      -9.191 -12.404  16.773  0.00  0.00    +0.000 HD
ATOM     54  H   UNL     1      -8.992 -10.709  18.586  0.00  0.00    +0.000 HD
ENDBRANCH  28  31
ENDBRANCH   2  28
TORSDOF 7
ENDMDL
MODEL 4
REMARK VINA RESULT:    -9.973      5.732      7.005
REMARK INTER + INTRA:         -14.184
REMARK INTER:                 -13.462
REMARK INTRA:                  -0.721
REMARK UNBOUND:                -0.713
REMARK  Name = 
REMARK  7 active torsions:
REMARK  status: ('A' for Active; 'I' for Inactive)
REMARK    1  A    between atoms: C_1  and  C_2
REMARK    2  A    between atoms: C_2  and  C_3
REMARK    3  A    between atoms: C_3  and  C_4
REMARK    4  A    between atoms: C_3  and  C_5
REMARK    5  A    between atoms: C_8  and  N_9
REMARK    6  A    between atoms: C_10  and  C_12
REMARK    7  A    between atoms: C_12  and  N_13
REMARK                            x       y       z     vdW  Elec       q    Type
REMARK                         _______ _______ _______ _____ _____    ______ ____
ROOT
ATOM      1  N   UNL     1      -9.497  -7.950  15.410  0.00  0.00    +0.000 N 
ATOM      2  C   UNL     1      -8.736  -6.905  15.870  0.00  0.00    +0.000 C 
ATOM      3  O   UNL     1      -7.760  -6.952  16.614  0.00  0.00    +0.000 OA
ATOM      4  H   UNL     1     -10.348  -7.724  14.904  0.00  0.00    +0.000 HD
ENDROOT
BRANCH   1   8
ATOM      5  C   UNL     1      -8.739 -11.926  16.470  0.00  0.00    +0.000 A 
ATOM      6  C   UNL     1      -8.456 -11.498  15.172  0.00  0.00    +0.000 A 
ATOM      7  C   UNL     1      -8.728 -10.192  14.801  0.00  0.00    +0.000 A 
ATOM      8  C   UNL     1      -9.267  -9.293  15.718  0.00  0.00    +0.000 A 
ATOM      9  C   UNL     1      -9.582  -9.713  17.006  0.00  0.00    +0.000 A 
ATOM     10  C   UNL     1      -9.322 -11.029  17.378  0.00  0.00    +0.000 A 
ATOM     11  H   UNL     1      -8.026 -12.173  14.437  0.00  0.00    +0.000 HD
ATOM     12  H   UNL     1      -8.486  -9.921  13.781  0.00  0.00    +0.000 HD
ATOM     13  H   UNL     1     -10.014  -9.032  17.734  0.00  0.00    +0.000 HD
ATOM     14  H   UNL     1      -9.572 -11.345  18.386  0.00  0.00    +0.000 HD
BRANCH   5  15
ATOM     15  C   UNL     1      -8.410 -13.351  16.849  0.00  0.00    +0.000 C 
ATOM     16  H   UNL     1      -7.349 -13.537  16.632  0.00  0.00    +0.000 HD
BRANCH  15  17
ATOM     17  C   UNL     1      -8.586 -13.531  18.358  0.00  0.00    +0.000 C 
ATOM     18  H   UNL     1      -8.265 -14.523  18.696  0.00  0.00    +0.000 HD
ATOM     19  H   UNL     1      -9.640 -13.414  18.640  0.00  0.00    +0.000 HD
ATOM     20  H   UNL     1      -8.007 -12.784  18.907  0.00  0.00    +0.000 HD
ENDBRANCH  15  17
BRANCH  15  21
ATOM     21  C   UNL     1      -9.236 -14.364  16.041  0.00  0.00    +0.000 C 
ATOM     22  H   UNL     1      -9.433 -15.237  16.671  0.00  0.00    +0.000 HD
ATOM     23  H   UNL     1     -10.210 -13.944  15.762  0.00  0.00    +0.000 HD
BRANCH  21  24
ATOM     24  C   UNL     1      -8.522 -14.837  14.776  0.00  0.00    +0.000 C 
ATOM     25  H   UNL     1      -8.751 -15.891  14.588  0.00  0.00    +0.000 HD
ATOM     26  H   UNL     1      -7.435 -14.739  14.873  0.00  0.00    +0.000 HD
ATOM     27  H   UNL     1      -8.840 -14.270  13.895  0.00  0.00    +0.000 HD
ENDBRANCH  21  24
ENDBRANCH  15  21
ENDBRANCH   5  15
ENDBRANCH   1   8
BRANCH   2  28
ATOM     28  C   UNL     1      -9.370  -5.587  15.618  0.00  0.00    +0.000 C 
ATOM     29  H   UNL     1      -9.956  -5.749  14.716  0.00  0.00    +0.000 HD
ATOM     30  H   UNL     1      -8.558  -4.893  15.349  0.00  0.00    +0.000 HD
BRANCH  28  31
ATOM     31  N   UNL     1     -10.180  -4.974  16.649  0.00  0.00    +0.000 N 
ATOM     32  C   UNL     1     -11.418  -5.488  16.983  0.00  0.00    +0.000 C 
ATOM     33  O   UNL     1     -11.660  -6.592  17.442  0.00  0.00    +0.000 OA
ATOM     34  N   UNL     1     -12.373  -4.488  16.732  0.00  0.00    +0.000 N 
ATOM     35  C   UNL     1     -11.809  -3.562  15.800  0.00  0.00    +0.000 C 
ATOM     36  C   UNL     1     -11.855  -4.139  14.343  0.00  0.00    +0.000 C 
ATOM     37  C   UNL     1     -11.169  -3.055  13.527  0.00  0.00    +0.000 C 
ATOM     38  C   UNL     1     -11.982  -1.937  14.102  0.00  0.00    +0.000 A 
ATOM     39  C   UNL     1     -12.511  -0.888  13.389  0.00  0.00    +0.000 A 
ATOM     40  C   UNL     1     -13.371  -0.041  14.068  0.00  0.00    +0.000 A 
ATOM     41  C   UNL     1     -13.623  -0.217  15.444  0.00  0.00    +0.000 A 
ATOM     42  C   UNL     1     -13.099  -1.304  16.154  0.00  0.00    +0.000 A 
ATOM     43  C   UNL     1     -12.320  -2.196  15.463  0.00  0.00    +0.000 A 
ATOM     44  C   UNL     1     -10.412  -3.647  16.389  0.00  0.00    +0.000 C 
ATOM     45  O   UNL     1      -9.588  -2.757  16.542  0.00  0.00    +0.000 OA
ATOM     46  H   UNL     1     -13.344  -4.577  17.003  0.00  0.00    +0.000 HD
ATOM     47  H   UNL     1     -12.904  -4.247  14.018  0.00  0.00    +0.000 HD
ATOM     48  H   UNL     1     -11.438  -5.119  14.159  0.00  0.00    +0.000 HD
ATOM     49  H   UNL     1     -11.271  -3.192  12.450  0.00  0.00    +0.000 HD
ATOM     50  H   UNL     1     -10.106  -2.942  13.784  0.00  0.00    +0.000 HD
ATOM     51  H   UNL     1     -12.333  -0.790  12.324  0.00  0.00    +0.000 HD
ATOM     52  H   UNL     1     -13.873   0.755  13.518  0.00  0.00    +0.000 HD
ATOM     53  H   UNL     1     -14.268   0.493  15.948  0.00  0.00    +0.000 HD
ATOM     54  H   UNL     1     -13.314  -1.429  17.213  0.00  0.00    +0.000 HD
ENDBRANCH  28  31
ENDBRANCH   2  28
TORSDOF 7
ENDMDL
MODEL 5
REMARK VINA RESULT:    -9.885      6.413     10.820
REMARK INTER + INTRA:         -14.065
REMARK INTER:                 -13.546
REMARK INTRA:                  -0.519
REMARK UNBOUND:                -0.713
REMARK  Name = 
REMARK  7 active torsions:
REMARK  status: ('A' for Active; 'I' for Inactive)
REMARK    1  A    between atoms: C_1  and  C_2
REMARK    2  A    between atoms: C_2  and  C_3
REMARK    3  A    between atoms: C_3  and  C_4
REMARK    4  A    between atoms: C_3  and  C_5
REMARK    5  A    between atoms: C_8  and  N_9
REMARK    6  A    between atoms: C_10  and  C_12
REMARK    7  A    between atoms: C_12  and  N_13
REMARK                            x       y       z     vdW  Elec       q    Type
REMARK                         _______ _______ _______ _____ _____    ______ ____
ROOT
ATOM      1  N   UNL     1     -11.164  -4.643  14.070  0.00  0.00    +0.000 N 
ATOM      2  C   UNL     1     -11.282  -5.090  15.362  0.00  0.00    +0.000 C 
ATOM      3  O   UNL     1     -11.971  -4.621  16.264  0.00  0.00    +0.000 OA
ATOM      4  H   UNL     1     -10.451  -5.072  13.488  0.00  0.00    +0.000 HD
ENDROOT
BRANCH   1   8
ATOM      5  C   UNL     1     -13.131  -1.364  12.371  0.00  0.00    +0.000 A 
ATOM      6  C   UNL     1     -12.617  -1.259  13.664  0.00  0.00    +0.000 A 
ATOM      7  C   UNL     1     -11.989  -2.345  14.248  0.00  0.00    +0.000 A 
ATOM      8  C   UNL     1     -11.847  -3.541  13.549  0.00  0.00    +0.000 A 
ATOM      9  C   UNL     1     -12.380  -3.671  12.270  0.00  0.00    +0.000 A 
ATOM     10  C   UNL     1     -13.024  -2.584  11.686  0.00  0.00    +0.000 A 
ATOM     11  H   UNL     1     -12.704  -0.335  14.232  0.00  0.00    +0.000 HD
ATOM     12  H   UNL     1     -11.612  -2.201  15.253  0.00  0.00    +0.000 HD
ATOM     13  H   UNL     1     -12.292  -4.598  11.712  0.00  0.00    +0.000 HD
ATOM     14  H   UNL     1     -13.436  -2.697  10.688  0.00  0.00    +0.000 HD
BRANCH   5  15
ATOM     15  C   UNL     1     -13.792  -0.154  11.755  0.00  0.00    +0.000 C 
ATOM     16  H   UNL     1     -14.724  -0.470  11.268  0.00  0.00    +0.000 HD
BRANCH  15  17
ATOM     17  C   UNL     1     -14.185   0.830  12.858  0.00  0.00    +0.000 C 
ATOM     18  H   UNL     1     -15.069   0.495  13.414  0.00  0.00    +0.000 HD
ATOM     19  H   UNL     1     -14.422   1.813  12.431  0.00  0.00    +0.000 HD
ATOM     20  H   UNL     1     -13.367   0.961  13.570  0.00  0.00    +0.000 HD
ENDBRANCH  15  17
BRANCH  15  21
ATOM     21  C   UNL     1     -12.905   0.498  10.682  0.00  0.00    +0.000 C 
ATOM     22  H   UNL     1     -12.928   1.584  10.820  0.00  0.00    +0.000 HD
ATOM     23  H   UNL     1     -11.860   0.184  10.790  0.00  0.00    +0.000 HD
BRANCH  21  24
ATOM     24  C   UNL     1     -13.368   0.188   9.259  0.00  0.00    +0.000 C 
ATOM     25  H   UNL     1     -12.834  -0.686   8.873  0.00  0.00    +0.000 HD
ATOM     26  H   UNL     1     -13.174   1.029   8.586  0.00  0.00    +0.000 HD
ATOM     27  H   UNL     1     -14.439  -0.040   9.223  0.00  0.00    +0.000 HD
ENDBRANCH  21  24
ENDBRANCH  15  21
ENDBRANCH   5  15
ENDBRANCH   1   8
BRANCH   2  28
ATOM     28  C   UNL     1     -10.243  -6.090  15.713  0.00  0.00    +0.000 C 
ATOM     29  H   UNL     1      -9.313  -5.530  15.654  0.00  0.00    +0.000 HD
ATOM     30  H   UNL     1     -10.224  -6.827  14.895  0.00  0.00    +0.000 HD
BRANCH  28  31
ATOM     31  N   UNL     1     -10.331  -6.800  16.972  0.00  0.00    +0.000 N 
ATOM     32  C   UNL     1      -9.320  -6.718  17.909  0.00  0.00    +0.000 C 
ATOM     33  O   UNL     1      -8.935  -5.719  18.495  0.00  0.00    +0.000 OA
ATOM     34  N   UNL     1      -8.820  -8.016  18.108  0.00  0.00    +0.000 N 
ATOM     35  C   UNL     1      -9.164  -8.802  16.965  0.00  0.00    +0.000 C 
ATOM     36  C   UNL     1      -8.208  -8.489  15.763  0.00  0.00    +0.000 C 
ATOM     37  C   UNL     1      -8.764  -9.360  14.649  0.00  0.00    +0.000 C 
ATOM     38  C   UNL     1      -8.820 -10.603  15.483  0.00  0.00    +0.000 A 
ATOM     39  C   UNL     1      -8.451 -11.859  15.067  0.00  0.00    +0.000 A 
ATOM     40  C   UNL     1      -8.419 -12.853  16.032  0.00  0.00    +0.000 A 
ATOM     41  C   UNL     1      -8.817 -12.588  17.358  0.00  0.00    +0.000 A 
ATOM     42  C   UNL     1      -9.165 -11.298  17.776  0.00  0.00    +0.000 A 
ATOM     43  C   UNL     1      -9.112 -10.293  16.844  0.00  0.00    +0.000 A 
ATOM     44  C   UNL     1     -10.522  -8.145  16.781  0.00  0.00    +0.000 C 
ATOM     45  O   UNL     1     -11.582  -8.654  16.449  0.00  0.00    +0.000 OA
ATOM     46  H   UNL     1      -8.150  -8.241  18.832  0.00  0.00    +0.000 HD
ATOM     47  H   UNL     1      -7.180  -8.806  16.012  0.00  0.00    +0.000 HD
ATOM     48  H   UNL     1      -8.080  -7.460  15.456  0.00  0.00    +0.000 HD
ATOM     49  H   UNL     1      -8.112  -9.421  13.777  0.00  0.00    +0.000 HD
ATOM     50  H   UNL     1      -9.771  -9.052  14.334  0.00  0.00    +0.000 HD
ATOM     51  H   UNL     1      -8.115 -12.036  14.051  0.00  0.00    +0.000 HD
ATOM     52  H   UNL     1      -8.055 -13.844  15.757  0.00  0.00    +0.000 HD
ATOM     53  H   UNL     1      -8.818 -13.402  18.072  0.00  0.00    +0.000 HD
ATOM     54  H   UNL     1      -9.460 -11.111  18.807  0.00  0.00    +0.000 HD
ENDBRANCH  28  31
ENDBRANCH   2  28
TORSDOF 7
ENDMDL
MODEL 6
REMARK VINA RESULT:    -9.870      5.812      8.132
REMARK INTER + INTRA:         -14.045
REMARK INTER:                 -13.217
REMARK INTRA:                  -0.828
REMARK UNBOUND:                -0.713
REMARK  Name = 
REMARK  7 active torsions:
REMARK  status: ('A' for Active; 'I' for Inactive)
REMARK    1  A    between atoms: C_1  and  C_2
REMARK    2  A    between atoms: C_2  and  C_3
REMARK    3  A    between atoms: C_3  and  C_4
REMARK    4  A    between atoms: C_3  and  C_5
REMARK    5  A    between atoms: C_8  and  N_9
REMARK    6  A    between atoms: C_10  and  C_12
REMARK    7  A    between atoms: C_12  and  N_13
REMARK                            x       y       z     vdW  Elec       q    Type
REMARK                         _______ _______ _______ _____ _____    ______ ____
ROOT
ATOM      1  N   UNL     1      -9.991  -7.154  15.973  0.00  0.00    +0.000 N 
ATOM      2  C   UNL     1     -11.016  -6.504  16.612  0.00  0.00    +0.000 C 
ATOM      3  O   UNL     1     -11.808  -6.964  17.431  0.00  0.00    +0.000 OA
ATOM      4  H   UNL     1      -9.511  -6.657  15.228  0.00  0.00    +0.000 HD
ENDROOT
BRANCH   1   8
ATOM      5  C   UNL     1      -9.137 -11.219  16.481  0.00  0.00    +0.000 A 
ATOM      6  C   UNL     1      -8.995 -10.349  17.564  0.00  0.00    +0.000 A 
ATOM      7  C   UNL     1      -9.247  -8.997  17.401  0.00  0.00    +0.000 A 
ATOM      8  C   UNL     1      -9.661  -8.498  16.169  0.00  0.00    +0.000 A 
ATOM      9  C   UNL     1      -9.778  -9.348  15.074  0.00  0.00    +0.000 A 
ATOM     10  C   UNL     1      -9.512 -10.704  15.231  0.00  0.00    +0.000 A 
ATOM     11  H   UNL     1      -8.683 -10.710  18.541  0.00  0.00    +0.000 HD
ATOM     12  H   UNL     1      -9.120  -8.374  18.277  0.00  0.00    +0.000 HD
ATOM     13  H   UNL     1     -10.088  -8.977  14.101  0.00  0.00    +0.000 HD
ATOM     14  H   UNL     1      -9.607 -11.358  14.369  0.00  0.00    +0.000 HD
BRANCH   5  15
ATOM     15  C   UNL     1      -8.874 -12.690  16.698  0.00  0.00    +0.000 C 
ATOM     16  H   UNL     1      -9.835 -13.223  16.699  0.00  0.00    +0.000 HD
BRANCH  15  17
ATOM     17  C   UNL     1      -8.069 -13.243  15.521  0.00  0.00    +0.000 C 
ATOM     18  H   UNL     1      -8.704 -13.475  14.658  0.00  0.00    +0.000 HD
ATOM     19  H   UNL     1      -7.555 -14.170  15.807  0.00  0.00    +0.000 HD
ATOM     20  H   UNL     1      -7.310 -12.526  15.199  0.00  0.00    +0.000 HD
ENDBRANCH  15  17
BRANCH  15  21
ATOM     21  C   UNL     1      -8.192 -12.958  18.049  0.00  0.00    +0.000 C 
ATOM     22  H   UNL     1      -7.147 -13.228  17.866  0.00  0.00    +0.000 HD
ATOM     23  H   UNL     1      -8.185 -12.055  18.671  0.00  0.00    +0.000 HD
BRANCH  21  24
ATOM     24  C   UNL     1      -8.850 -14.092  18.832  0.00  0.00    +0.000 C 
ATOM     25  H   UNL     1      -8.242 -14.999  18.761  0.00  0.00    +0.000 HD
ATOM     26  H   UNL     1      -9.846 -14.321  18.439  0.00  0.00    +0.000 HD
ATOM     27  H   UNL     1      -8.949 -13.846  19.895  0.00  0.00    +0.000 HD
ENDBRANCH  21  24
ENDBRANCH  15  21
ENDBRANCH   5  15
ENDBRANCH   1   8
BRANCH   2  28
ATOM     28  C   UNL     1     -11.311  -5.179  16.010  0.00  0.00    +0.000 C 
ATOM     29  H   UNL     1     -12.089  -4.771  16.650  0.00  0.00    +0.000 HD
ATOM     30  H   UNL     1     -11.775  -5.374  15.030  0.00  0.00    +0.000 HD
BRANCH  28  31
ATOM     31  N   UNL     1     -10.241  -4.221  15.832  0.00  0.00    +0.000 N 
ATOM     32  C   UNL     1     -10.376  -2.914  16.258  0.00  0.00    +0.000 C 
ATOM     33  O   UNL     1     -10.542  -2.523  17.402  0.00  0.00    +0.000 OA
ATOM     34  N   UNL     1     -10.252  -2.086  15.129  0.00  0.00    +0.000 N 
ATOM     35  C   UNL     1     -10.534  -2.873  13.970  0.00  0.00    +0.000 C 
ATOM     36  C   UNL     1     -12.078  -3.079  13.797  0.00  0.00    +0.000 C 
ATOM     37  C   UNL     1     -12.167  -3.973  12.571  0.00  0.00    +0.000 C 
ATOM     38  C   UNL     1     -11.251  -3.130  11.740  0.00  0.00    +0.000 A 
ATOM     39  C   UNL     1     -11.442  -2.811  10.417  0.00  0.00    +0.000 A 
ATOM     40  C   UNL     1     -10.571  -1.887   9.864  0.00  0.00    +0.000 A 
ATOM     41  C   UNL     1      -9.501  -1.361  10.616  0.00  0.00    +0.000 A 
ATOM     42  C   UNL     1      -9.332  -1.673  11.970  0.00  0.00    +0.000 A 
ATOM     43  C   UNL     1     -10.245  -2.519  12.545  0.00  0.00    +0.000 A 
ATOM     44  C   UNL     1      -9.864  -4.122  14.517  0.00  0.00    +0.000 C 
ATOM     45  O   UNL     1      -9.186  -4.951  13.927  0.00  0.00    +0.000 OA
ATOM     46  H   UNL     1     -10.200  -1.077  15.193  0.00  0.00    +0.000 HD
ATOM     47  H   UNL     1     -12.563  -2.109  13.592  0.00  0.00    +0.000 HD
ATOM     48  H   UNL     1     -12.647  -3.466  14.631  0.00  0.00    +0.000 HD
ATOM     49  H   UNL     1     -13.180  -4.075  12.180  0.00  0.00    +0.000 HD
ATOM     50  H   UNL     1     -11.738  -4.970  12.743  0.00  0.00    +0.000 HD
ATOM     51  H   UNL     1     -12.291  -3.199   9.865  0.00  0.00    +0.000 HD
ATOM     52  H   UNL     1     -10.739  -1.549   8.841  0.00  0.00    +0.000 HD
ATOM     53  H   UNL     1      -8.817  -0.673  10.134  0.00  0.00    +0.000 HD
ATOM     54  H   UNL     1      -8.505  -1.249  12.536  0.00  0.00    +0.000 HD
ENDBRANCH  28  31
ENDBRANCH   2  28
TORSDOF 7
ENDMDL
MODEL 7
REMARK VINA RESULT:    -9.850      4.317      5.731
REMARK INTER + INTRA:         -14.018
REMARK INTER:                 -13.341
REMARK INTRA:                  -0.677
REMARK UNBOUND:                -0.713
REMARK  Name = 
REMARK  7 active torsions:
REMARK  status: ('A' for Active; 'I' for Inactive)
REMARK    1  A    between atoms: C_1  and  C_2
REMARK    2  A    between atoms: C_2  and  C_3
REMARK    3  A    between atoms: C_3  and  C_4
REMARK    4  A    between atoms: C_3  and  C_5
REMARK    5  A    between atoms: C_8  and  N_9
REMARK    6  A    between atoms: C_10  and  C_12
REMARK    7  A    between atoms: C_12  and  N_13
REMARK                            x       y       z     vdW  Elec       q    Type
REMARK                         _______ _______ _______ _____ _____    ______ ____
ROOT
ATOM      1  N   UNL     1      -9.618  -7.880  18.405  0.00  0.00    +0.000 N 
ATOM      2  C   UNL     1     -10.837  -7.263  18.279  0.00  0.00    +0.000 C 
ATOM      3  O   UNL     1     -11.861  -7.709  17.769  0.00  0.00    +0.000 OA
ATOM      4  H   UNL     1      -8.840  -7.321  18.739  0.00  0.00    +0.000 HD
ENDROOT
BRANCH   1   8
ATOM      5  C   UNL     1      -8.640 -11.753  17.158  0.00  0.00    +0.000 A 
ATOM      6  C   UNL     1      -9.219 -10.867  16.248  0.00  0.00    +0.000 A 
ATOM      7  C   UNL     1      -9.573  -9.592  16.656  0.00  0.00    +0.000 A 
ATOM      8  C   UNL     1      -9.339  -9.177  17.964  0.00  0.00    +0.000 A 
ATOM      9  C   UNL     1      -8.790 -10.058  18.890  0.00  0.00    +0.000 A 
ATOM     10  C   UNL     1      -8.446 -11.345  18.486  0.00  0.00    +0.000 A 
ATOM     11  H   UNL     1      -9.405 -11.159  15.217  0.00  0.00    +0.000 HD
ATOM     12  H   UNL     1     -10.018  -8.952  15.904  0.00  0.00    +0.000 HD
ATOM     13  H   UNL     1      -8.610  -9.759  19.918  0.00  0.00    +0.000 HD
ATOM     14  H   UNL     1      -8.017 -12.024  19.217  0.00  0.00    +0.000 HD
BRANCH   5  15
ATOM     15  C   UNL     1      -8.245 -13.129  16.675  0.00  0.00    +0.000 C 
ATOM     16  H   UNL     1      -7.158 -13.241  16.780  0.00  0.00    +0.000 HD
BRANCH  15  17
ATOM     17  C   UNL     1      -8.884 -14.188  17.576  0.00  0.00    +0.000 C 
ATOM     18  H   UNL     1      -8.333 -15.135  17.554  0.00  0.00    +0.000 HD
ATOM     19  H   UNL     1      -9.911 -14.399  17.254  0.00  0.00    +0.000 HD
ATOM     20  H   UNL     1      -8.922 -13.843  18.612  0.00  0.00    +0.000 HD
ENDBRANCH  15  17
BRANCH  15  21
ATOM     21  C   UNL     1      -8.594 -13.337  15.193  0.00  0.00    +0.000 C 
ATOM     22  H   UNL     1      -9.439 -12.690  14.937  0.00  0.00    +0.000 HD
ATOM     23  H   UNL     1      -7.758 -13.042  14.547  0.00  0.00    +0.000 HD
BRANCH  21  24
ATOM     24  C   UNL     1      -8.981 -14.780  14.871  0.00  0.00    +0.000 C 
ATOM     25  H   UNL     1      -8.091 -15.355  14.597  0.00  0.00    +0.000 HD
ATOM     26  H   UNL     1      -9.685 -14.824  14.033  0.00  0.00    +0.000 HD
ATOM     27  H   UNL     1      -9.441 -15.277  15.731  0.00  0.00    +0.000 HD
ENDBRANCH  21  24
ENDBRANCH  15  21
ENDBRANCH   5  15
ENDBRANCH   1   8
BRANCH   2  28
ATOM     28  C   UNL     1     -10.769  -5.809  18.574  0.00  0.00    +0.000 C 
ATOM     29  H   UNL     1     -10.794  -5.764  19.660  0.00  0.00    +0.000 HD
ATOM     30  H   UNL     1     -11.714  -5.371  18.216  0.00  0.00    +0.000 HD
BRANCH  28  31
ATOM     31  N   UNL     1      -9.669  -5.025  18.054  0.00  0.00    +0.000 N 
ATOM     32  C   UNL     1      -9.064  -4.050  18.823  0.00  0.00    +0.000 C 
ATOM     33  O   UNL     1      -8.463  -4.204  19.874  0.00  0.00    +0.000 OA
ATOM     34  N   UNL     1      -9.228  -2.823  18.157  0.00  0.00    +0.000 N 
ATOM     35  C   UNL     1     -10.333  -2.952  17.259  0.00  0.00    +0.000 C 
ATOM     36  C   UNL     1     -11.694  -2.852  18.030  0.00  0.00    +0.000 C 
ATOM     37  C   UNL     1     -12.723  -3.070  16.934  0.00  0.00    +0.000 C 
ATOM     38  C   UNL     1     -12.118  -2.069  15.998  0.00  0.00    +0.000 A 
ATOM     39  C   UNL     1     -12.818  -1.162  15.240  0.00  0.00    +0.000 A 
ATOM     40  C   UNL     1     -12.076  -0.210  14.561  0.00  0.00    +0.000 A 
ATOM     41  C   UNL     1     -10.667  -0.230  14.597  0.00  0.00    +0.000 A 
ATOM     42  C   UNL     1      -9.965  -1.143  15.394  0.00  0.00    +0.000 A 
ATOM     43  C   UNL     1     -10.700  -2.030  16.139  0.00  0.00    +0.000 A 
ATOM     44  C   UNL     1     -10.009  -4.389  16.887  0.00  0.00    +0.000 C 
ATOM     45  O   UNL     1     -10.097  -4.939  15.799  0.00  0.00    +0.000 OA
ATOM     46  H   UNL     1      -8.775  -1.970  18.458  0.00  0.00    +0.000 HD
ATOM     47  H   UNL     1     -11.806  -1.840  18.457  0.00  0.00    +0.000 HD
ATOM     48  H   UNL     1     -11.857  -3.497  18.882  0.00  0.00    +0.000 HD
ATOM     49  H   UNL     1     -13.745  -2.848  17.246  0.00  0.00    +0.000 HD
ATOM     50  H   UNL     1     -12.681  -4.082  16.509  0.00  0.00    +0.000 HD
ATOM     51  H   UNL     1     -13.902  -1.141  15.253  0.00  0.00    +0.000 HD
ATOM     52  H   UNL     1     -12.598   0.575  14.012  0.00  0.00    +0.000 HD
ATOM     53  H   UNL     1     -10.122   0.506  14.017  0.00  0.00    +0.000 HD
ATOM     54  H   UNL     1      -8.877  -1.136  15.417  0.00  0.00    +0.000 HD
ENDBRANCH  28  31
ENDBRANCH   2  28
TORSDOF 7
ENDMDL
MODEL 8
REMARK VINA RESULT:    -9.727      5.286      6.315
REMARK INTER + INTRA:         -13.852
REMARK INTER:                 -13.208
REMARK INTRA:                  -0.644
REMARK UNBOUND:                -0.713
REMARK  Name = 
REMARK  7 active torsions:
REMARK  status: ('A' for Active; 'I' for Inactive)
REMARK    1  A    between atoms: C_1  and  C_2
REMARK    2  A    between atoms: C_2  and  C_3
REMARK    3  A    between atoms: C_3  and  C_4
REMARK    4  A    between atoms: C_3  and  C_5
REMARK    5  A    between atoms: C_8  and  N_9
REMARK    6  A    between atoms: C_10  and  C_12
REMARK    7  A    between atoms: C_12  and  N_13
REMARK                            x       y       z     vdW  Elec       q    Type
REMARK                         _______ _______ _______ _____ _____    ______ ____
ROOT
ATOM      1  N   UNL     1      -9.325  -7.035  15.944  0.00  0.00    +0.000 N 
ATOM      2  C   UNL     1     -10.330  -6.234  16.421  0.00  0.00    +0.000 C 
ATOM      3  O   UNL     1     -11.328  -6.569  17.054  0.00  0.00    +0.000 OA
ATOM      4  H   UNL     1      -8.637  -6.611  15.329  0.00  0.00    +0.000 HD
ENDROOT
BRANCH   1   8
ATOM      5  C   UNL     1      -9.019 -11.161  16.569  0.00  0.00    +0.000 A 
ATOM      6  C   UNL     1      -9.228 -10.678  15.276  0.00  0.00    +0.000 A 
ATOM      7  C   UNL     1      -9.359  -9.317  15.060  0.00  0.00    +0.000 A 
ATOM      8  C   UNL     1      -9.265  -8.420  16.121  0.00  0.00    +0.000 A 
ATOM      9  C   UNL     1      -9.087  -8.888  17.419  0.00  0.00    +0.000 A 
ATOM     10  C   UNL     1      -8.968 -10.257  17.640  0.00  0.00    +0.000 A 
ATOM     11  H   UNL     1      -9.297 -11.353  14.426  0.00  0.00    +0.000 HD
ATOM     12  H   UNL     1      -9.520  -9.005  14.036  0.00  0.00    +0.000 HD
ATOM     13  H   UNL     1      -9.022  -8.207  18.262  0.00  0.00    +0.000 HD
ATOM     14  H   UNL     1      -8.829 -10.611  18.657  0.00  0.00    +0.000 HD
BRANCH   5  15
ATOM     15  C   UNL     1      -8.860 -12.650  16.767  0.00  0.00    +0.000 C 
ATOM     16  H   UNL     1      -9.856 -13.113  16.786  0.00  0.00    +0.000 HD
BRANCH  15  17
ATOM     17  C   UNL     1      -8.123 -13.249  15.567  0.00  0.00    +0.000 C 
ATOM     18  H   UNL     1      -7.827 -12.483  14.840  0.00  0.00    +0.000 HD
ATOM     19  H   UNL     1      -8.763 -13.968  15.042  0.00  0.00    +0.000 HD
ATOM     20  H   UNL     1      -7.221 -13.775  15.890  0.00  0.00    +0.000 HD
ENDBRANCH  15  17
BRANCH  15  21
ATOM     21  C   UNL     1      -8.168 -12.979  18.099  0.00  0.00    +0.000 C 
ATOM     22  H   UNL     1      -7.140 -13.292  17.893  0.00  0.00    +0.000 HD
ATOM     23  H   UNL     1      -8.109 -12.092  18.742  0.00  0.00    +0.000 HD
BRANCH  21  24
ATOM     24  C   UNL     1      -8.864 -14.101  18.869  0.00  0.00    +0.000 C 
ATOM     25  H   UNL     1      -8.568 -14.074  19.922  0.00  0.00    +0.000 HD
ATOM     26  H   UNL     1      -8.595 -15.084  18.467  0.00  0.00    +0.000 HD
ATOM     27  H   UNL     1      -9.954 -14.002  18.831  0.00  0.00    +0.000 HD
ENDBRANCH  21  24
ENDBRANCH  15  21
ENDBRANCH   5  15
ENDBRANCH   1   8
BRANCH   2  28
ATOM     28  C   UNL     1     -10.283  -4.863  15.851  0.00  0.00    +0.000 C 
ATOM     29  H   UNL     1      -9.505  -4.925  15.094  0.00  0.00    +0.000 HD
ATOM     30  H   UNL     1      -9.901  -4.205  16.647  0.00  0.00    +0.000 HD
BRANCH  28  31
ATOM     31  N   UNL     1     -11.486  -4.276  15.302  0.00  0.00    +0.000 N 
ATOM     32  C   UNL     1     -11.487  -3.694  14.049  0.00  0.00    +0.000 C 
ATOM     33  O   UNL     1     -11.260  -4.238  12.981  0.00  0.00    +0.000 OA
ATOM     34  N   UNL     1     -11.838  -2.342  14.210  0.00  0.00    +0.000 N 
ATOM     35  C   UNL     1     -11.571  -1.976  15.566  0.00  0.00    +0.000 C 
ATOM     36  C   UNL     1     -10.039  -1.728  15.786  0.00  0.00    +0.000 C 
ATOM     37  C   UNL     1      -9.955  -1.416  17.271  0.00  0.00    +0.000 C 
ATOM     38  C   UNL     1     -11.058  -0.403  17.245  0.00  0.00    +0.000 A 
ATOM     39  C   UNL     1     -11.048   0.804  17.902  0.00  0.00    +0.000 A 
ATOM     40  C   UNL     1     -12.089   1.675  17.625  0.00  0.00    +0.000 A 
ATOM     41  C   UNL     1     -13.138   1.299  16.763  0.00  0.00    +0.000 A 
ATOM     42  C   UNL     1     -13.124   0.077  16.078  0.00  0.00    +0.000 A 
ATOM     43  C   UNL     1     -12.050  -0.751  16.281  0.00  0.00    +0.000 A 
ATOM     44  C   UNL     1     -12.005  -3.316  16.133  0.00  0.00    +0.000 C 
ATOM     45  O   UNL     1     -12.621  -3.551  17.162  0.00  0.00    +0.000 OA
ATOM     46  H   UNL     1     -12.020  -1.726  13.429  0.00  0.00    +0.000 HD
ATOM     47  H   UNL     1      -9.715  -0.852  15.198  0.00  0.00    +0.000 HD
ATOM     48  H   UNL     1      -9.341  -2.497  15.487  0.00  0.00    +0.000 HD
ATOM     49  H   UNL     1      -8.983  -1.029  17.580  0.00  0.00    +0.000 HD
ATOM     50  H   UNL     1     -10.225  -2.275  17.900  0.00  0.00    +0.000 HD
ATOM     51  H   UNL     1     -10.215   1.089  18.535  0.00  0.00    +0.000 HD
ATOM     52  H   UNL     1     -12.074   2.673  18.066  0.00  0.00    +0.000 HD
ATOM     53  H   UNL     1     -13.955   1.992  16.606  0.00  0.00    +0.000 HD
ATOM     54  H   UNL     1     -13.938  -0.191  15.409  0.00  0.00    +0.000 HD
ENDBRANCH  28  31
ENDBRANCH   2  28
TORSDOF 7
ENDMDL
MODEL 9
REMARK VINA RESULT:    -9.710      3.206      3.827
REMARK INTER + INTRA:         -13.829
REMARK INTER:                 -13.179
REMARK INTRA:                  -0.649
REMARK UNBOUND:                -0.713
REMARK  Name = 
REMARK  7 active torsions:
REMARK  status: ('A' for Active; 'I' for Inactive)
REMARK    1  A    between atoms: C_1  and  C_2
REMARK    2  A    between atoms: C_2  and  C_3
REMARK    3  A    between atoms: C_3  and  C_4
REMARK    4  A    between atoms: C_3  and  C_5
REMARK    5  A    between atoms: C_8  and  N_9
REMARK    6  A    between atoms: C_10  and  C_12
REMARK    7  A    between atoms: C_12  and  N_13
REMARK                            x       y       z     vdW  Elec       q    Type
REMARK                         _______ _______ _______ _____ _____    ______ ____
ROOT
ATOM      1  N   UNL     1      -9.059  -6.424  18.460  0.00  0.00    +0.000 N 
ATOM      2  C   UNL     1     -10.156  -5.636  18.224  0.00  0.00    +0.000 C 
ATOM      3  O   UNL     1     -11.235  -5.969  17.740  0.00  0.00    +0.000 OA
ATOM      4  H   UNL     1      -8.201  -5.962  18.748  0.00  0.00    +0.000 HD
ENDROOT
BRANCH   1   8
ATOM      5  C   UNL     1      -8.993 -10.508  17.551  0.00  0.00    +0.000 A 
ATOM      6  C   UNL     1      -8.816 -10.098  18.874  0.00  0.00    +0.000 A 
ATOM      7  C   UNL     1      -8.807  -8.749  19.183  0.00  0.00    +0.000 A 
ATOM      8  C   UNL     1      -8.994  -7.793  18.188  0.00  0.00    +0.000 A 
ATOM      9  C   UNL     1      -9.142  -8.185  16.861  0.00  0.00    +0.000 A 
ATOM     10  C   UNL     1      -9.137  -9.540  16.546  0.00  0.00    +0.000 A 
ATOM     11  H   UNL     1      -8.677 -10.821  19.674  0.00  0.00    +0.000 HD
ATOM     12  H   UNL     1      -8.665  -8.495  20.226  0.00  0.00    +0.000 HD
ATOM     13  H   UNL     1      -9.276  -7.455  16.068  0.00  0.00    +0.000 HD
ATOM     14  H   UNL     1      -9.254  -9.834  15.507  0.00  0.00    +0.000 HD
BRANCH   5  15
ATOM     15  C   UNL     1      -9.019 -11.988  17.251  0.00  0.00    +0.000 C 
ATOM     16  H   UNL     1     -10.060 -12.336  17.280  0.00  0.00    +0.000 HD
BRANCH  15  17
ATOM     17  C   UNL     1      -8.517 -12.227  15.825  0.00  0.00    +0.000 C 
ATOM     18  H   UNL     1      -8.278 -13.282  15.643  0.00  0.00    +0.000 HD
ATOM     19  H   UNL     1      -7.604 -11.648  15.636  0.00  0.00    +0.000 HD
ATOM     20  H   UNL     1      -9.267 -11.920  15.094  0.00  0.00    +0.000 HD
ENDBRANCH  15  17
BRANCH  15  21
ATOM     21  C   UNL     1      -8.228 -12.797  18.291  0.00  0.00    +0.000 C 
ATOM     22  H   UNL     1      -7.247 -13.043  17.872  0.00  0.00    +0.000 HD
ATOM     23  H   UNL     1      -8.050 -12.206  19.197  0.00  0.00    +0.000 HD
BRANCH  21  24
ATOM     24  C   UNL     1      -8.922 -14.101  18.681  0.00  0.00    +0.000 C 
ATOM     25  H   UNL     1      -9.960 -13.903  18.968  0.00  0.00    +0.000 HD
ATOM     26  H   UNL     1      -8.421 -14.579  19.530  0.00  0.00    +0.000 HD
ATOM     27  H   UNL     1      -8.942 -14.814  17.850  0.00  0.00    +0.000 HD
ENDBRANCH  21  24
ENDBRANCH  15  21
ENDBRANCH   5  15
ENDBRANCH   1   8
BRANCH   2  28
ATOM     28  C   UNL     1      -9.852  -4.188  18.344  0.00  0.00    +0.000 C 
ATOM     29  H   UNL     1      -8.976  -4.054  17.714  0.00  0.00    +0.000 HD
ATOM     30  H   UNL     1      -9.526  -4.019  19.382  0.00  0.00    +0.000 HD
BRANCH  28  31
ATOM     31  N   UNL     1     -10.871  -3.214  18.014  0.00  0.00    +0.000 N 
ATOM     32  C   UNL     1     -10.590  -2.136  17.198  0.00  0.00    +0.000 C 
ATOM     33  O   UNL     1     -10.234  -2.166  16.031  0.00  0.00    +0.000 OA
ATOM     34  N   UNL     1     -10.820  -0.968  17.944  0.00  0.00    +0.000 N 
ATOM     35  C   UNL     1     -10.762  -1.310  19.330  0.00  0.00    +0.000 C 
ATOM     36  C   UNL     1      -9.275  -1.463  19.806  0.00  0.00    +0.000 C 
ATOM     37  C   UNL     1      -9.424  -1.879  21.259  0.00  0.00    +0.000 C 
ATOM     38  C   UNL     1     -10.393  -0.790  21.600  0.00  0.00    +0.000 A 
ATOM     39  C   UNL     1     -10.374  -0.037  22.749  0.00  0.00    +0.000 A 
ATOM     40  C   UNL     1     -11.252   1.033  22.810  0.00  0.00    +0.000 A 
ATOM     41  C   UNL     1     -12.166   1.280  21.765  0.00  0.00    +0.000 A 
ATOM     42  C   UNL     1     -12.158   0.522  20.588  0.00  0.00    +0.000 A 
ATOM     43  C   UNL     1     -11.229  -0.482  20.486  0.00  0.00    +0.000 A 
ATOM     44  C   UNL     1     -11.426  -2.662  19.141  0.00  0.00    +0.000 C 
ATOM     45  O   UNL     1     -12.236  -3.228  19.862  0.00  0.00    +0.000 OA
ATOM     46  H   UNL     1     -10.796  -0.042  17.535  0.00  0.00    +0.000 HD
ATOM     47  H   UNL     1      -8.763  -0.487  19.743  0.00  0.00    +0.000 HD
ATOM     48  H   UNL     1      -8.619  -2.120  19.253  0.00  0.00    +0.000 HD
ATOM     49  H   UNL     1      -8.487  -1.852  21.817  0.00  0.00    +0.000 HD
ATOM     50  H   UNL     1      -9.889  -2.869  21.370  0.00  0.00    +0.000 HD
ATOM     51  H   UNL     1      -9.641  -0.220  23.526  0.00  0.00    +0.000 HD
ATOM     52  H   UNL     1     -11.213   1.701  23.671  0.00  0.00    +0.000 HD
ATOM     53  H   UNL     1     -12.865   2.100  21.871  0.00  0.00    +0.000 HD
ATOM     54  H   UNL     1     -12.864   0.734  19.788  0.00  0.00    +0.000 HD
ENDBRANCH  28  31
ENDBRANCH   2  28
TORSDOF 7
ENDMDL
