REMARK  Name = 
REMARK  4 active torsions:
REMARK  status: ('A' for Active; 'I' for Inactive)
REMARK    1  A    between atoms: C_2  and  C_14
REMARK    2  A    between atoms: N_3  and  C_4
REMARK    3  A    between atoms: C_4  and  C_5
REMARK    4  A    between atoms: C_16  and  C_17
REMARK                            x       y       z     vdW  Elec       q    Type
REMARK                         _______ _______ _______ _____ _____    ______ ____
ROOT
ATOM      1  O   UNL     1      -3.659   0.842  -0.494  0.00  0.00    +0.000 OA
ATOM      2  C   UNL     1      -2.435   0.757  -0.462  0.00  0.00    +0.000 C 
ATOM      3  N   UNL     1      -1.730   0.496   0.691  0.00  0.00    +0.000 N 
ATOM      4  H   UNL     1      -0.732   0.641   0.697  0.00  0.00    +0.000 HD
ENDROOT
BRANCH   2   5
ATOM      5  C   UNL     1      -1.627   0.940  -1.637  0.00  0.00    +0.000 A 
ATOM      6  C   UNL     1      -0.274   0.802  -1.862  0.00  0.00    +0.000 A 
ATOM      7  C   UNL     1      -0.064   1.102  -3.232  0.00  0.00    +0.000 A 
ATOM      8  N   UNL     1      -1.229   1.394  -3.833  0.00  0.00    +0.000 NA
ATOM      9  N   UNL     1      -2.146   1.291  -2.852  0.00  0.00    +0.000 N 
ATOM     10  H   UNL     1       0.473   0.496  -1.145  0.00  0.00    +0.000 HD
ATOM     11  H   UNL     1      -3.125   1.467  -3.074  0.00  0.00    +0.000 HD
BRANCH   7  12
ATOM     12  C   UNL     1       1.215   1.080  -3.939  0.00  0.00    +0.000 A 
ATOM     13  C   UNL     1       1.270   0.809  -5.313  0.00  0.00    +0.000 A 
ATOM     14  C   UNL     1       2.502   0.730  -5.970  0.00  0.00    +0.000 A 
ATOM     15  C   UNL     1       3.683   0.933  -5.258  0.00  0.00    +0.000 A 
ATOM     16 BR   UNL     1       5.349   0.810  -6.141  0.00  0.00    +0.000 Br
ATOM     17  C   UNL     1       3.647   1.221  -3.897  0.00  0.00    +0.000 A 
ATOM     18  C   UNL     1       2.415   1.296  -3.240  0.00  0.00    +0.000 A 
ATOM     19  H   UNL     1       0.353   0.639  -5.872  0.00  0.00    +0.000 HD
ATOM     20  H   UNL     1       2.526   0.506  -7.033  0.00  0.00    +0.000 HD
ATOM     21  H   UNL     1       4.563   1.386  -3.336  0.00  0.00    +0.000 HD
ATOM     22  H   UNL     1       2.410   1.530  -2.180  0.00  0.00    +0.000 HD
ENDBRANCH   7  12
ENDBRANCH   2   5
BRANCH   3  23
ATOM     23  C   UNL     1      -2.397   0.371   1.963  0.00  0.00    +0.000 C 
ATOM     24  H   UNL     1      -3.418   0.001   1.817  0.00  0.00    +0.000 HD
ATOM     25  H   UNL     1      -2.479   1.376   2.390  0.00  0.00    +0.000 HD
BRANCH  23  26
ATOM     26  C   UNL     1      -1.648  -0.541   2.902  0.00  0.00    +0.000 A 
ATOM     27  C   UNL     1      -1.936  -1.927   2.916  0.00  0.00    +0.000 A 
ATOM     28  C   UNL     1      -1.285  -2.793   3.801  0.00  0.00    +0.000 A 
ATOM     29  C   UNL     1      -0.347  -2.253   4.652  0.00  0.00    +0.000 A 
ATOM     30  C   UNL     1      -0.047  -0.912   4.638  0.00  0.00    +0.000 A 
ATOM     31  C   UNL     1      -0.671  -0.032   3.775  0.00  0.00    +0.000 A 
ATOM     32  O   UNL     1       0.897  -0.584   5.561  0.00  0.00    +0.000 OA
ATOM     33  C   UNL     1       1.132  -1.868   6.179  0.00  0.00    +0.000 C 
ATOM     34  O   UNL     1       0.372  -2.938   5.581  0.00  0.00    +0.000 OA
ATOM     35  H   UNL     1      -2.689  -2.331   2.241  0.00  0.00    +0.000 HD
ATOM     36  H   UNL     1      -1.517  -3.852   3.826  0.00  0.00    +0.000 HD
ATOM     37  H   UNL     1      -0.420   1.023   3.798  0.00  0.00    +0.000 HD
ATOM     38  H   UNL     1       0.866  -1.801   7.241  0.00  0.00    +0.000 HD
ATOM     39  H   UNL     1       2.199  -2.107   6.100  0.00  0.00    +0.000 HD
ENDBRANCH  23  26
ENDBRANCH   3  23
TORSDOF 4
