REMARK  Name = 
REMARK  4 active torsions:
REMARK  status: ('A' for Active; 'I' for Inactive)
REMARK    1  A    between atoms: C_2  and  C_11
REMARK    2  A    between atoms: N_3  and  C_4
REMARK    3  A    between atoms: C_16  and  C_17
REMARK    4  A    between atoms: C_22  and  C_23
REMARK                            x       y       z     vdW  Elec       q    Type
REMARK                         _______ _______ _______ _____ _____    ______ ____
ROOT
ATOM      1  C   UNL     1      -0.940  -0.563   0.427  0.00  0.00    +0.000 A 
ATOM      2  C   UNL     1      -1.207   0.829   0.307  0.00  0.00    +0.000 A 
ATOM      3  C   UNL     1      -0.152   1.338  -0.390  0.00  0.00    +0.000 A 
ATOM      4  N   UNL     1       0.641   0.271  -0.704  0.00  0.00    +0.000 N 
ATOM      5  N   UNL     1       0.237  -0.897  -0.154  0.00  0.00    +0.000 NA
ATOM      6  C   UNL     1       1.837   0.390  -1.519  0.00  0.00    +0.000 C 
ATOM      7  C   UNL     1       2.413   1.816  -1.377  0.00  0.00    +0.000 C 
ATOM      8  C   UNL     1       1.318   2.878  -1.614  0.00  0.00    +0.000 C 
ATOM      9  N   UNL     1       0.173   2.593  -0.751  0.00  0.00    +0.000 N 
ATOM     10  H   UNL     1      -2.058   1.364   0.708  0.00  0.00    +0.000 HD
ATOM     11  H   UNL     1       2.566  -0.319  -1.108  0.00  0.00    +0.000 HD
ATOM     12  H   UNL     1       3.258   1.963  -2.062  0.00  0.00    +0.000 HD
ATOM     13  H   UNL     1       2.818   1.928  -0.360  0.00  0.00    +0.000 HD
ATOM     14  H   UNL     1       0.964   2.821  -2.650  0.00  0.00    +0.000 HD
ATOM     15  H   UNL     1      -0.477   3.367  -0.618  0.00  0.00    +0.000 HD
ENDROOT
BRANCH   8  16
ATOM     16  C   UNL     1       1.843   4.259  -1.386  0.00  0.00    +0.000 A 
ATOM     17  C   UNL     1       2.065   5.007  -0.247  0.00  0.00    +0.000 A 
ATOM     18  C   UNL     1       2.417   6.305  -0.686  0.00  0.00    +0.000 A 
ATOM     19  C   UNL     1       2.428   6.255  -2.060  0.00  0.00    +0.000 A 
ATOM     20  O   UNL     1       2.088   5.014  -2.495  0.00  0.00    +0.000 OA
ATOM     21  H   UNL     1       1.934   4.664   0.771  0.00  0.00    +0.000 HD
ATOM     22  H   UNL     1       2.621   7.174  -0.077  0.00  0.00    +0.000 HD
ATOM     23  H   UNL     1       2.627   6.983  -2.834  0.00  0.00    +0.000 HD
ENDBRANCH   8  16
BRANCH   1  25
ATOM     24  O   UNL     1      -2.922  -1.144   1.521  0.00  0.00    +0.000 OA
ATOM     25  C   UNL     1      -1.827  -1.516   1.110  0.00  0.00    +0.000 C 
ATOM     26  N   UNL     1      -1.290  -2.780   1.268  0.00  0.00    +0.000 N 
ATOM     27  H   UNL     1      -0.318  -2.867   0.990  0.00  0.00    +0.000 HD
BRANCH  26  28
ATOM     28  C   UNL     1      -1.932  -3.872   1.891  0.00  0.00    +0.000 A 
ATOM     29  C   UNL     1      -3.313  -3.905   2.127  0.00  0.00    +0.000 A 
ATOM     30  C   UNL     1      -3.903  -4.985   2.786  0.00  0.00    +0.000 A 
ATOM     31  C   UNL     1      -3.110  -6.038   3.209  0.00  0.00    +0.000 A 
ATOM     32  F   UNL     1      -3.670  -7.064   3.862  0.00  0.00    +0.000 F 
ATOM     33  C   UNL     1      -1.742  -6.041   2.963  0.00  0.00    +0.000 A 
ATOM     34  C   UNL     1      -1.152  -4.963   2.291  0.00  0.00    +0.000 A 
ATOM     35  H   UNL     1      -3.969  -3.106   1.793  0.00  0.00    +0.000 HD
ATOM     36  H   UNL     1      -4.973  -4.997   2.971  0.00  0.00    +0.000 HD
ATOM     37  H   UNL     1      -1.142  -6.878   3.307  0.00  0.00    +0.000 HD
ATOM     38  H   UNL     1      -0.079  -4.977   2.120  0.00  0.00    +0.000 HD
ENDBRANCH  26  28
ENDBRANCH   1  25
BRANCH   6  39
ATOM     39  C   UNL     1       1.537   0.020  -2.964  0.00  0.00    +0.000 C 
ATOM     40  F   UNL     1       0.257  -0.337  -3.195  0.00  0.00    +0.000 F 
ATOM     41  F   UNL     1       1.818   1.036  -3.817  0.00  0.00    +0.000 F 
ATOM     42  F   UNL     1       2.316  -1.021  -3.351  0.00  0.00    +0.000 F 
ENDBRANCH   6  39
TORSDOF 4
