MODEL 1
REMARK VINA RESULT:   -10.498      0.000      0.000
REMARK INTER + INTRA:         -14.767
REMARK INTER:                 -13.874
REMARK INTRA:                  -0.893
REMARK UNBOUND:                -0.893
REMARK  Name = 
REMARK  7 active torsions:
REMARK  status: ('A' for Active; 'I' for Inactive)
REMARK    1  A    between atoms: C_1  and  O_2
REMARK    2  A    between atoms: O_2  and  C_3
REMARK    3  A    between atoms: C_3  and  C_5
REMARK    4  A    between atoms: C_6  and  N_7
REMARK    5  A    between atoms: C_11  and  C_12
REMARK    6  A    between atoms: N_14  and  C_15
REMARK    7  A    between atoms: C_21  and  C_22
REMARK                            x       y       z     vdW  Elec       q    Type
REMARK                         _______ _______ _______ _____ _____    ______ ____
ROOT
ATOM      1  C   UNL     1     -10.291  -6.138  17.779  0.00  0.00    +0.000 C 
ATOM      2  C   UNL     1     -10.238  -6.777  16.585  0.00  0.00    +0.000 C 
ATOM      3  O   UNL     1      -9.726  -8.092  16.469  0.00  0.00    +0.000 OA
ATOM      4  C   UNL     1      -9.484  -8.732  17.596  0.00  0.00    +0.000 A 
ATOM      5  C   UNL     1      -9.462  -8.209  18.850  0.00  0.00    +0.000 A 
ATOM      6  C   UNL     1      -9.216  -9.287  19.711  0.00  0.00    +0.000 A 
ATOM      7  N   UNL     1      -9.032 -10.422  19.026  0.00  0.00    +0.000 NA
ATOM      8  N   UNL     1      -9.106 -10.075  17.703  0.00  0.00    +0.000 N 
ATOM      9  C   UNL     1      -9.683  -6.751  19.035  0.00  0.00    +0.000 C 
ATOM     10  H   UNL     1     -10.354  -6.623  19.895  0.00  0.00    +0.000 HD
ENDROOT
BRANCH   9  11
ATOM     11  C   UNL     1      -8.299  -6.167  19.315  0.00  0.00    +0.000 A 
ATOM     12  C   UNL     1      -7.309  -6.315  18.336  0.00  0.00    +0.000 A 
ATOM     13  C   UNL     1      -5.995  -5.944  18.608  0.00  0.00    +0.000 A 
ATOM     14  C   UNL     1      -5.684  -5.277  19.797  0.00  0.00    +0.000 A 
ATOM     15  C   UNL     1      -4.386  -4.860  20.079  0.00  0.00    +0.000 A 
ATOM     16  C   UNL     1      -4.185  -3.715  20.830  0.00  0.00    +0.000 A 
ATOM     17  C   UNL     1      -5.206  -3.288  21.667  0.00  0.00    +0.000 A 
ATOM     18  C   UNL     1      -6.408  -4.001  21.709  0.00  0.00    +0.000 A 
ATOM     19  C   UNL     1      -6.695  -4.940  20.703  0.00  0.00    +0.000 A 
ATOM     20  C   UNL     1      -7.960  -5.514  20.523  0.00  0.00    +0.000 A 
ATOM     21  H   UNL     1      -7.551  -6.743  17.365  0.00  0.00    +0.000 HD
ATOM     22  H   UNL     1      -5.240  -6.074  17.835  0.00  0.00    +0.000 HD
ATOM     23  H   UNL     1      -3.542  -5.488  19.810  0.00  0.00    +0.000 HD
ATOM     24  H   UNL     1      -3.230  -3.199  20.791  0.00  0.00    +0.000 HD
ATOM     25  H   UNL     1      -5.049  -2.432  22.314  0.00  0.00    +0.000 HD
ATOM     26  H   UNL     1      -7.155  -3.735  22.451  0.00  0.00    +0.000 HD
ATOM     27  H   UNL     1      -8.700  -5.387  21.312  0.00  0.00    +0.000 HD
ENDBRANCH   9  11
BRANCH   8  28
ATOM     28  C   UNL     1      -8.824 -11.021  16.686  0.00  0.00    +0.000 A 
ATOM     29  C   UNL     1      -8.605 -12.364  17.036  0.00  0.00    +0.000 A 
ATOM     30  C   UNL     1      -8.276 -13.312  16.071  0.00  0.00    +0.000 A 
ATOM     31  C   UNL     1      -8.165 -12.936  14.733  0.00  0.00    +0.000 A 
ATOM     32  C   UNL     1      -8.384 -11.608  14.367  0.00  0.00    +0.000 A 
ATOM     33  C   UNL     1      -8.713 -10.654  15.333  0.00  0.00    +0.000 A 
ATOM     34  H   UNL     1      -8.667 -12.683  18.081  0.00  0.00    +0.000 HD
ATOM     35  H   UNL     1      -8.098 -14.343  16.359  0.00  0.00    +0.000 HD
ATOM     36  H   UNL     1      -7.911 -13.671  13.977  0.00  0.00    +0.000 HD
ATOM     37  H   UNL     1      -8.294 -11.311  13.325  0.00  0.00    +0.000 HD
ATOM     38  H   UNL     1      -8.859  -9.638  14.992  0.00  0.00    +0.000 HD
ENDBRANCH   8  28
BRANCH   6  39
ATOM     39  C   UNL     1      -9.129  -9.273  21.210  0.00  0.00    +0.000 C 
ATOM     40  H   UNL     1      -8.486  -8.479  21.557  0.00  0.00    +0.000 HD
ATOM     41  H   UNL     1      -8.722 -10.226  21.566  0.00  0.00    +0.000 HD
ATOM     42  H   UNL     1     -10.114  -9.145  21.633  0.00  0.00    +0.000 HD
ENDBRANCH   6  39
BRANCH   2  43
ATOM     43  N   UNL     1     -10.640  -6.264  15.368  0.00  0.00    +0.000 N 
ATOM     44  H   UNL     1     -11.564  -5.833  15.398  0.00  0.00    +0.000 HD
ATOM     45  H   UNL     1     -10.518  -6.922  14.606  0.00  0.00    +0.000 HD
ENDBRANCH   2  43
BRANCH   1  46
ATOM     46  C   UNL     1     -10.955  -4.835  18.035  0.00  0.00    +0.000 C 
ATOM     47  O   UNL     1     -10.645  -4.091  18.959  0.00  0.00    +0.000 OA
BRANCH  46  48
ATOM     48  O   UNL     1     -12.007  -4.616  17.201  0.00  0.00    +0.000 OA
BRANCH  48  49
ATOM     49  C   UNL     1     -12.243  -3.238  16.905  0.00  0.00    +0.000 C 
ATOM     50  H   UNL     1     -11.646  -2.975  16.029  0.00  0.00    +0.000 HD
ATOM     51  H   UNL     1     -11.930  -2.609  17.745  0.00  0.00    +0.000 HD
ATOM     52  H   UNL     1     -13.299  -3.072  16.665  0.00  0.00    +0.000 HD
ENDBRANCH  48  49
ENDBRANCH  46  48
ENDBRANCH   1  46
TORSDOF 7
ENDMDL
MODEL 2
REMARK VINA RESULT:   -10.078      2.620      7.273
REMARK INTER + INTRA:         -14.212
REMARK INTER:                 -13.150
REMARK INTRA:                  -1.061
REMARK UNBOUND:                -0.893
REMARK  Name = 
REMARK  7 active torsions:
REMARK  status: ('A' for Active; 'I' for Inactive)
REMARK    1  A    between atoms: C_1  and  O_2
REMARK    2  A    between atoms: O_2  and  C_3
REMARK    3  A    between atoms: C_3  and  C_5
REMARK    4  A    between atoms: C_6  and  N_7
REMARK    5  A    between atoms: C_11  and  C_12
REMARK    6  A    between atoms: N_14  and  C_15
REMARK    7  A    between atoms: C_21  and  C_22
REMARK                            x       y       z     vdW  Elec       q    Type
REMARK                         _______ _______ _______ _____ _____    ______ ____
ROOT
ATOM      1  C   UNL     1      -9.872  -5.293  17.449  0.00  0.00    +0.000 C 
ATOM      2  C   UNL     1     -10.548  -4.620  18.411  0.00  0.00    +0.000 C 
ATOM      3  O   UNL     1      -9.955  -4.317  19.661  0.00  0.00    +0.000 OA
ATOM      4  C   UNL     1      -8.663  -4.552  19.773  0.00  0.00    +0.000 A 
ATOM      5  C   UNL     1      -7.875  -5.244  18.910  0.00  0.00    +0.000 A 
ATOM      6  C   UNL     1      -6.576  -5.171  19.431  0.00  0.00    +0.000 A 
ATOM      7  N   UNL     1      -6.560  -4.515  20.598  0.00  0.00    +0.000 NA
ATOM      8  N   UNL     1      -7.866  -4.202  20.868  0.00  0.00    +0.000 N 
ATOM      9  C   UNL     1      -8.487  -5.873  17.710  0.00  0.00    +0.000 C 
ATOM     10  H   UNL     1      -7.819  -5.685  16.859  0.00  0.00    +0.000 HD
ENDROOT
BRANCH   9  11
ATOM     11  C   UNL     1      -8.570  -7.363  18.035  0.00  0.00    +0.000 A 
ATOM     12  C   UNL     1      -8.678  -7.742  19.380  0.00  0.00    +0.000 A 
ATOM     13  C   UNL     1      -8.596  -9.084  19.738  0.00  0.00    +0.000 A 
ATOM     14  C   UNL     1      -8.565 -10.075  18.751  0.00  0.00    +0.000 A 
ATOM     15  C   UNL     1      -8.520 -11.428  19.079  0.00  0.00    +0.000 A 
ATOM     16  C   UNL     1      -9.126 -12.352  18.246  0.00  0.00    +0.000 A 
ATOM     17  C   UNL     1      -9.331 -12.007  16.917  0.00  0.00    +0.000 A 
ATOM     18  C   UNL     1      -8.950 -10.739  16.467  0.00  0.00    +0.000 A 
ATOM     19  C   UNL     1      -8.658  -9.729  17.399  0.00  0.00    +0.000 A 
ATOM     20  C   UNL     1      -8.512  -8.379  17.053  0.00  0.00    +0.000 A 
ATOM     21  H   UNL     1      -8.802  -6.990  20.157  0.00  0.00    +0.000 HD
ATOM     22  H   UNL     1      -8.675  -9.355  20.789  0.00  0.00    +0.000 HD
ATOM     23  H   UNL     1      -7.921 -11.765  19.920  0.00  0.00    +0.000 HD
ATOM     24  H   UNL     1      -9.386 -13.336  18.623  0.00  0.00    +0.000 HD
ATOM     25  H   UNL     1      -9.742 -12.737  16.230  0.00  0.00    +0.000 HD
ATOM     26  H   UNL     1      -9.001 -10.518  15.405  0.00  0.00    +0.000 HD
ATOM     27  H   UNL     1      -8.420  -8.125  15.998  0.00  0.00    +0.000 HD
ENDBRANCH   9  11
BRANCH   8  28
ATOM     28  C   UNL     1      -8.231  -3.611  22.104  0.00  0.00    +0.000 A 
ATOM     29  C   UNL     1      -9.030  -2.455  22.105  0.00  0.00    +0.000 A 
ATOM     30  C   UNL     1      -9.367  -1.819  23.297  0.00  0.00    +0.000 A 
ATOM     31  C   UNL     1      -8.917  -2.330  24.513  0.00  0.00    +0.000 A 
ATOM     32  C   UNL     1      -8.127  -3.479  24.531  0.00  0.00    +0.000 A 
ATOM     33  C   UNL     1      -7.785  -4.120  23.337  0.00  0.00    +0.000 A 
ATOM     34  H   UNL     1      -9.382  -2.022  21.164  0.00  0.00    +0.000 HD
ATOM     35  H   UNL     1      -9.976  -0.919  23.280  0.00  0.00    +0.000 HD
ATOM     36  H   UNL     1      -9.178  -1.838  25.444  0.00  0.00    +0.000 HD
ATOM     37  H   UNL     1      -7.770  -3.878  25.477  0.00  0.00    +0.000 HD
ATOM     38  H   UNL     1      -7.160  -5.000  23.412  0.00  0.00    +0.000 HD
ENDBRANCH   8  28
BRANCH   6  39
ATOM     39  C   UNL     1      -5.312  -5.736  18.850  0.00  0.00    +0.000 C 
ATOM     40  H   UNL     1      -4.604  -5.986  19.624  0.00  0.00    +0.000 HD
ATOM     41  H   UNL     1      -4.849  -4.999  18.185  0.00  0.00    +0.000 HD
ATOM     42  H   UNL     1      -5.538  -6.620  18.274  0.00  0.00    +0.000 HD
ENDBRANCH   6  39
BRANCH   2  43
ATOM     43  N   UNL     1     -11.848  -4.164  18.327  0.00  0.00    +0.000 N 
ATOM     44  H   UNL     1     -12.542  -4.886  18.522  0.00  0.00    +0.000 HD
ATOM     45  H   UNL     1     -12.026  -3.643  17.475  0.00  0.00    +0.000 HD
ENDBRANCH   2  43
BRANCH   1  46
ATOM     46  C   UNL     1     -10.337  -5.512  16.056  0.00  0.00    +0.000 C 
ATOM     47  O   UNL     1     -11.504  -5.754  15.766  0.00  0.00    +0.000 OA
BRANCH  46  48
ATOM     48  O   UNL     1      -9.312  -5.522  15.162  0.00  0.00    +0.000 OA
BRANCH  48  49
ATOM     49  C   UNL     1      -9.551  -4.743  13.988  0.00  0.00    +0.000 C 
ATOM     50  H   UNL     1     -10.531  -5.021  13.594  0.00  0.00    +0.000 HD
ATOM     51  H   UNL     1      -8.793  -4.958  13.228  0.00  0.00    +0.000 HD
ATOM     52  H   UNL     1      -9.568  -3.676  14.231  0.00  0.00    +0.000 HD
ENDBRANCH  48  49
ENDBRANCH  46  48
ENDBRANCH   1  46
TORSDOF 7
ENDMDL
MODEL 3
REMARK VINA RESULT:    -8.669      6.034      8.554
REMARK INTER + INTRA:         -12.350
REMARK INTER:                 -11.570
REMARK INTRA:                  -0.780
REMARK UNBOUND:                -0.893
REMARK  Name = 
REMARK  7 active torsions:
REMARK  status: ('A' for Active; 'I' for Inactive)
REMARK    1  A    between atoms: C_1  and  O_2
REMARK    2  A    between atoms: O_2  and  C_3
REMARK    3  A    between atoms: C_3  and  C_5
REMARK    4  A    between atoms: C_6  and  N_7
REMARK    5  A    between atoms: C_11  and  C_12
REMARK    6  A    between atoms: N_14  and  C_15
REMARK    7  A    between atoms: C_21  and  C_22
REMARK                            x       y       z     vdW  Elec       q    Type
REMARK                         _______ _______ _______ _____ _____    ______ ____
ROOT
ATOM      1  C   UNL     1     -11.099  -0.361  21.453  0.00  0.00    +0.000 C 
ATOM      2  C   UNL     1     -10.328  -0.807  20.432  0.00  0.00    +0.000 C 
ATOM      3  O   UNL     1      -9.219  -1.658  20.658  0.00  0.00    +0.000 OA
ATOM      4  C   UNL     1      -9.088  -2.145  21.876  0.00  0.00    +0.000 A 
ATOM      5  C   UNL     1      -9.761  -1.763  22.991  0.00  0.00    +0.000 A 
ATOM      6  C   UNL     1      -9.316  -2.607  24.018  0.00  0.00    +0.000 A 
ATOM      7  N   UNL     1      -8.363  -3.439  23.580  0.00  0.00    +0.000 NA
ATOM      8  N   UNL     1      -8.146  -3.102  22.270  0.00  0.00    +0.000 N 
ATOM      9  C   UNL     1     -10.736  -0.644  22.906  0.00  0.00    +0.000 C 
ATOM     10  H   UNL     1     -11.626  -0.934  23.481  0.00  0.00    +0.000 HD
ENDROOT
BRANCH   9  11
ATOM     11  C   UNL     1     -10.029   0.554  23.537  0.00  0.00    +0.000 A 
ATOM     12  C   UNL     1      -8.719   0.379  24.003  0.00  0.00    +0.000 A 
ATOM     13  C   UNL     1      -8.093   1.389  24.727  0.00  0.00    +0.000 A 
ATOM     14  C   UNL     1      -8.702   2.641  24.859  0.00  0.00    +0.000 A 
ATOM     15  C   UNL     1      -8.082   3.683  25.545  0.00  0.00    +0.000 A 
ATOM     16  C   UNL     1      -8.305   4.990  25.148  0.00  0.00    +0.000 A 
ATOM     17  C   UNL     1      -9.459   5.273  24.430  0.00  0.00    +0.000 A 
ATOM     18  C   UNL     1     -10.342   4.239  24.108  0.00  0.00    +0.000 A 
ATOM     19  C   UNL     1      -9.924   2.903  24.231  0.00  0.00    +0.000 A 
ATOM     20  C   UNL     1     -10.639   1.819  23.704  0.00  0.00    +0.000 A 
ATOM     21  H   UNL     1      -8.190  -0.555  23.825  0.00  0.00    +0.000 HD
ATOM     22  H   UNL     1      -7.078   1.229  25.085  0.00  0.00    +0.000 HD
ATOM     23  H   UNL     1      -7.521   3.479  26.453  0.00  0.00    +0.000 HD
ATOM     24  H   UNL     1      -7.610   5.772  25.436  0.00  0.00    +0.000 HD
ATOM     25  H   UNL     1      -9.688   6.299  24.165  0.00  0.00    +0.000 HD
ATOM     26  H   UNL     1     -11.299   4.482  23.655  0.00  0.00    +0.000 HD
ATOM     27  H   UNL     1     -11.659   1.992  23.363  0.00  0.00    +0.000 HD
ENDBRANCH   9  11
BRANCH   8  28
ATOM     28  C   UNL     1      -7.099  -3.703  21.528  0.00  0.00    +0.000 A 
ATOM     29  C   UNL     1      -7.406  -4.692  20.579  0.00  0.00    +0.000 A 
ATOM     30  C   UNL     1      -6.400  -5.341  19.868  0.00  0.00    +0.000 A 
ATOM     31  C   UNL     1      -5.064  -5.008  20.087  0.00  0.00    +0.000 A 
ATOM     32  C   UNL     1      -4.741  -4.024  21.022  0.00  0.00    +0.000 A 
ATOM     33  C   UNL     1      -5.748  -3.373  21.739  0.00  0.00    +0.000 A 
ATOM     34  H   UNL     1      -8.445  -4.987  20.400  0.00  0.00    +0.000 HD
ATOM     35  H   UNL     1      -6.654  -6.112  19.146  0.00  0.00    +0.000 HD
ATOM     36  H   UNL     1      -4.278  -5.509  19.534  0.00  0.00    +0.000 HD
ATOM     37  H   UNL     1      -3.700  -3.766  21.199  0.00  0.00    +0.000 HD
ATOM     38  H   UNL     1      -5.436  -2.628  22.459  0.00  0.00    +0.000 HD
ENDBRANCH   8  28
BRANCH   6  39
ATOM     39  C   UNL     1      -9.764  -2.639  25.450  0.00  0.00    +0.000 C 
ATOM     40  H   UNL     1      -9.085  -2.093  26.085  0.00  0.00    +0.000 HD
ATOM     41  H   UNL     1      -9.805  -3.677  25.802  0.00  0.00    +0.000 HD
ATOM     42  H   UNL     1     -10.752  -2.213  25.534  0.00  0.00    +0.000 HD
ENDBRANCH   6  39
BRANCH   2  43
ATOM     43  N   UNL     1     -10.492  -0.505  19.095  0.00  0.00    +0.000 N 
ATOM     44  H   UNL     1     -11.261  -1.014  18.659  0.00  0.00    +0.000 HD
ATOM     45  H   UNL     1      -9.623  -0.549  18.575  0.00  0.00    +0.000 HD
ENDBRANCH   2  43
BRANCH   1  46
ATOM     46  C   UNL     1     -12.372   0.392  21.313  0.00  0.00    +0.000 C 
ATOM     47  O   UNL     1     -13.393   0.110  21.930  0.00  0.00    +0.000 OA
BRANCH  46  48
ATOM     48  O   UNL     1     -12.303   1.352  20.350  0.00  0.00    +0.000 OA
BRANCH  48  49
ATOM     49  C   UNL     1     -13.481   2.153  20.237  0.00  0.00    +0.000 C 
ATOM     50  H   UNL     1     -13.555   2.771  21.134  0.00  0.00    +0.000 HD
ATOM     51  H   UNL     1     -14.370   1.516  20.176  0.00  0.00    +0.000 HD
ATOM     52  H   UNL     1     -13.414   2.814  19.367  0.00  0.00    +0.000 HD
ENDBRANCH  48  49
ENDBRANCH  46  48
ENDBRANCH   1  46
TORSDOF 7
ENDMDL
MODEL 4
REMARK VINA RESULT:    -7.705      5.611      9.552
REMARK INTER + INTRA:         -11.075
REMARK INTER:                 -10.268
REMARK INTRA:                  -0.808
REMARK UNBOUND:                -0.893
REMARK  Name = 
REMARK  7 active torsions:
REMARK  status: ('A' for Active; 'I' for Inactive)
REMARK    1  A    between atoms: C_1  and  O_2
REMARK    2  A    between atoms: O_2  and  C_3
REMARK    3  A    between atoms: C_3  and  C_5
REMARK    4  A    between atoms: C_6  and  N_7
REMARK    5  A    between atoms: C_11  and  C_12
REMARK    6  A    between atoms: N_14  and  C_15
REMARK    7  A    between atoms: C_21  and  C_22
REMARK                            x       y       z     vdW  Elec       q    Type
REMARK                         _______ _______ _______ _____ _____    ______ ____
ROOT
ATOM      1  C   UNL     1      -9.771  -1.314  23.569  0.00  0.00    +0.000 C 
ATOM      2  C   UNL     1      -9.645   0.035  23.528  0.00  0.00    +0.000 C 
ATOM      3  O   UNL     1      -9.733   0.751  22.310  0.00  0.00    +0.000 OA
ATOM      4  C   UNL     1     -10.129   0.071  21.252  0.00  0.00    +0.000 A 
ATOM      5  C   UNL     1     -10.258  -1.277  21.143  0.00  0.00    +0.000 A 
ATOM      6  C   UNL     1     -10.760  -1.512  19.856  0.00  0.00    +0.000 A 
ATOM      7  N   UNL     1     -10.883  -0.370  19.168  0.00  0.00    +0.000 NA
ATOM      8  N   UNL     1     -10.409   0.615  19.994  0.00  0.00    +0.000 N 
ATOM      9  C   UNL     1      -9.881  -2.140  22.293  0.00  0.00    +0.000 C 
ATOM     10  H   UNL     1     -10.655  -2.913  22.395  0.00  0.00    +0.000 HD
ENDROOT
BRANCH   9  11
ATOM     11  C   UNL     1      -8.532  -2.748  21.915  0.00  0.00    +0.000 A 
ATOM     12  C   UNL     1      -7.405  -2.366  22.655  0.00  0.00    +0.000 A 
ATOM     13  C   UNL     1      -6.134  -2.766  22.250  0.00  0.00    +0.000 A 
ATOM     14  C   UNL     1      -5.984  -3.677  21.200  0.00  0.00    +0.000 A 
ATOM     15  C   UNL     1      -4.728  -4.124  20.798  0.00  0.00    +0.000 A 
ATOM     16  C   UNL     1      -4.589  -5.404  20.292  0.00  0.00    +0.000 A 
ATOM     17  C   UNL     1      -5.708  -6.026  19.755  0.00  0.00    +0.000 A 
ATOM     18  C   UNL     1      -6.937  -5.361  19.764  0.00  0.00    +0.000 A 
ATOM     19  C   UNL     1      -7.108  -4.226  20.575  0.00  0.00    +0.000 A 
ATOM     20  C   UNL     1      -8.358  -3.648  20.839  0.00  0.00    +0.000 A 
ATOM     21  H   UNL     1      -7.509  -1.737  23.536  0.00  0.00    +0.000 HD
ATOM     22  H   UNL     1      -5.272  -2.453  22.836  0.00  0.00    +0.000 HD
ATOM     23  H   UNL     1      -3.887  -3.437  20.776  0.00  0.00    +0.000 HD
ATOM     24  H   UNL     1      -3.614  -5.881  20.278  0.00  0.00    +0.000 HD
ATOM     25  H   UNL     1      -5.610  -7.002  19.292  0.00  0.00    +0.000 HD
ATOM     26  H   UNL     1      -7.779  -5.800  19.236  0.00  0.00    +0.000 HD
ATOM     27  H   UNL     1      -9.208  -3.962  20.234  0.00  0.00    +0.000 HD
ENDBRANCH   9  11
BRANCH   8  28
ATOM     28  C   UNL     1     -10.270   1.948  19.532  0.00  0.00    +0.000 A 
ATOM     29  C   UNL     1      -9.281   2.247  18.579  0.00  0.00    +0.000 A 
ATOM     30  C   UNL     1      -9.082   3.552  18.139  0.00  0.00    +0.000 A 
ATOM     31  C   UNL     1      -9.873   4.586  18.639  0.00  0.00    +0.000 A 
ATOM     32  C   UNL     1     -10.862   4.306  19.581  0.00  0.00    +0.000 A 
ATOM     33  C   UNL     1     -11.064   2.997  20.027  0.00  0.00    +0.000 A 
ATOM     34  H   UNL     1      -8.634   1.458  18.184  0.00  0.00    +0.000 HD
ATOM     35  H   UNL     1      -8.306   3.769  17.411  0.00  0.00    +0.000 HD
ATOM     36  H   UNL     1      -9.722   5.604  18.298  0.00  0.00    +0.000 HD
ATOM     37  H   UNL     1     -11.477   5.111  19.977  0.00  0.00    +0.000 HD
ATOM     38  H   UNL     1     -11.837   2.843  20.767  0.00  0.00    +0.000 HD
ENDBRANCH   8  28
BRANCH   6  39
ATOM     39  C   UNL     1     -11.121  -2.828  19.229  0.00  0.00    +0.000 C 
ATOM     40  H   UNL     1     -10.243  -3.352  18.886  0.00  0.00    +0.000 HD
ATOM     41  H   UNL     1     -11.779  -2.659  18.368  0.00  0.00    +0.000 HD
ATOM     42  H   UNL     1     -11.647  -3.442  19.944  0.00  0.00    +0.000 HD
ENDBRANCH   6  39
BRANCH   2  43
ATOM     43  N   UNL     1      -9.413   0.865  24.606  0.00  0.00    +0.000 N 
ATOM     44  H   UNL     1     -10.035   1.674  24.633  0.00  0.00    +0.000 HD
ATOM     45  H   UNL     1      -8.433   1.096  24.719  0.00  0.00    +0.000 HD
ENDBRANCH   2  43
BRANCH   1  46
ATOM     46  C   UNL     1      -9.861  -2.138  24.801  0.00  0.00    +0.000 C 
ATOM     47  O   UNL     1     -10.878  -2.730  25.142  0.00  0.00    +0.000 OA
BRANCH  46  48
ATOM     48  O   UNL     1      -8.729  -2.072  25.553  0.00  0.00    +0.000 OA
BRANCH  48  49
ATOM     49  C   UNL     1      -8.964  -1.891  26.950  0.00  0.00    +0.000 C 
ATOM     50  H   UNL     1      -9.020  -0.818  27.145  0.00  0.00    +0.000 HD
ATOM     51  H   UNL     1      -8.137  -2.311  27.533  0.00  0.00    +0.000 HD
ATOM     52  H   UNL     1      -9.917  -2.345  27.243  0.00  0.00    +0.000 HD
ENDBRANCH  48  49
ENDBRANCH  46  48
ENDBRANCH   1  46
TORSDOF 7
ENDMDL
