MODEL 1
REMARK VINA RESULT:   -10.332      0.000      0.000
REMARK INTER + INTRA:         -12.086
REMARK INTER:                 -11.540
REMARK INTRA:                  -0.547
REMARK UNBOUND:                -0.547
REMARK  Name = 
REMARK  3 active torsions:
REMARK  status: ('A' for Active; 'I' for Inactive)
REMARK    1  A    between atoms: C_1  and  C_2
REMARK    2  A    between atoms: N_9  and  C_10
REMARK    3  A    between atoms: C_21  and  N_22
REMARK                            x       y       z     vdW  Elec       q    Type
REMARK                         _______ _______ _______ _____ _____    ______ ____
ROOT
ATOM      1  C   UNL     1      -7.834  -5.048  19.141  0.00  0.00    +0.000 A 
ATOM      2  N   UNL     1      -6.666  -5.698  19.174  0.00  0.00    +0.000 N 
ATOM      3  C   UNL     1      -5.731  -5.372  20.050  0.00  0.00    +0.000 A 
ATOM      4  N   UNL     1      -5.862  -4.398  20.964  0.00  0.00    +0.000 NA
ATOM      5  C   UNL     1      -7.043  -3.736  20.992  0.00  0.00    +0.000 A 
ATOM      6  N   UNL     1      -7.092  -2.715  21.948  0.00  0.00    +0.000 N 
ATOM      7  C   UNL     1      -8.180  -2.233  22.584  0.00  0.00    +0.000 A 
ATOM      8  N   UNL     1      -9.399  -2.720  22.481  0.00  0.00    +0.000 NA
ATOM      9  C   UNL     1     -10.304  -1.933  23.163  0.00  0.00    +0.000 A 
ATOM     10  C   UNL     1      -9.766  -0.823  23.771  0.00  0.00    +0.000 A 
ATOM     11  S   UNL     1      -8.061  -0.827  23.575  0.00  0.00    +0.000 S 
ATOM     12  C   UNL     1      -8.098  -4.051  20.097  0.00  0.00    +0.000 A 
ATOM     13  H   UNL     1      -6.497  -6.389  18.436  0.00  0.00    +0.000 HD
ATOM     14  H   UNL     1      -4.789  -5.909  20.000  0.00  0.00    +0.000 HD
ATOM     15  H   UNL     1      -6.192  -2.569  22.390  0.00  0.00    +0.000 HD
ATOM     16  H   UNL     1     -11.352  -2.202  23.163  0.00  0.00    +0.000 HD
ATOM     17  H   UNL     1     -10.277  -0.034  24.303  0.00  0.00    +0.000 HD
ENDROOT
BRANCH   1  25
ATOM     18  C   UNL     1      -8.724 -10.095  18.619  0.00  0.00    +0.000 A 
ATOM     19  C   UNL     1      -9.026 -11.233  17.855  0.00  0.00    +0.000 A 
ATOM     20  C   UNL     1      -9.615 -11.130  16.595  0.00  0.00    +0.000 A 
ATOM     21  C   UNL     1      -9.915  -9.884  16.042  0.00  0.00    +0.000 A 
ATOM     22  C   UNL     1      -9.610  -8.746  16.800  0.00  0.00    +0.000 A 
ATOM     23  S   UNL     1      -9.806  -7.088  16.379  0.00  0.00    +0.000 S 
ATOM     24  C   UNL     1      -9.089  -6.631  17.862  0.00  0.00    +0.000 A 
ATOM     25  N   UNL     1      -8.767  -5.345  18.126  0.00  0.00    +0.000 N 
ATOM     26  N   UNL     1      -8.801  -7.610  18.692  0.00  0.00    +0.000 NA
ATOM     27  C   UNL     1      -9.041  -8.828  18.072  0.00  0.00    +0.000 A 
ATOM     28  H   UNL     1      -8.792 -12.227  18.238  0.00  0.00    +0.000 HD
ATOM     29  H   UNL     1      -9.834 -12.033  16.028  0.00  0.00    +0.000 HD
ATOM     30  H   UNL     1     -10.349  -9.804  15.052  0.00  0.00    +0.000 HD
ATOM     31  H   UNL     1      -8.649  -4.753  17.307  0.00  0.00    +0.000 HD
BRANCH  18  32
ATOM     32  C   UNL     1      -8.030 -10.236  19.943  0.00  0.00    +0.000 C 
ATOM     33  H   UNL     1      -7.030 -10.666  19.837  0.00  0.00    +0.000 HD
ATOM     34  H   UNL     1      -8.613 -10.882  20.606  0.00  0.00    +0.000 HD
ATOM     35  H   UNL     1      -7.930  -9.250  20.413  0.00  0.00    +0.000 HD
ENDBRANCH  18  32
ENDBRANCH   1  25
BRANCH  12  36
ATOM     36  N   UNL     1      -9.244  -3.228  19.899  0.00  0.00    +0.000 N 
ATOM     37  H   UNL     1      -8.956  -2.248  19.777  0.00  0.00    +0.000 HD
ATOM     38  H   UNL     1      -9.902  -3.228  20.672  0.00  0.00    +0.000 HD
ENDBRANCH  12  36
TORSDOF 3
ENDMDL
MODEL 2
REMARK VINA RESULT:    -9.829      2.537      3.267
REMARK INTER + INTRA:         -11.524
REMARK INTER:                 -11.569
REMARK INTRA:                   0.045
REMARK UNBOUND:                -0.547
REMARK  Name = 
REMARK  3 active torsions:
REMARK  status: ('A' for Active; 'I' for Inactive)
REMARK    1  A    between atoms: C_1  and  C_2
REMARK    2  A    between atoms: N_9  and  C_10
REMARK    3  A    between atoms: C_21  and  N_22
REMARK                            x       y       z     vdW  Elec       q    Type
REMARK                         _______ _______ _______ _____ _____    ______ ____
ROOT
ATOM      1  C   UNL     1      -9.043  -7.079  17.686  0.00  0.00    +0.000 A 
ATOM      2  N   UNL     1      -8.477  -7.865  18.607  0.00  0.00    +0.000 N 
ATOM      3  C   UNL     1      -8.075  -7.372  19.767  0.00  0.00    +0.000 A 
ATOM      4  N   UNL     1      -8.200  -6.084  20.121  0.00  0.00    +0.000 NA
ATOM      5  C   UNL     1      -8.801  -5.257  19.233  0.00  0.00    +0.000 A 
ATOM      6  N   UNL     1      -8.865  -3.926  19.660  0.00  0.00    +0.000 N 
ATOM      7  C   UNL     1      -9.780  -2.994  19.320  0.00  0.00    +0.000 A 
ATOM      8  N   UNL     1     -10.852  -3.213  18.586  0.00  0.00    +0.000 NA
ATOM      9  C   UNL     1     -11.519  -2.034  18.323  0.00  0.00    +0.000 A 
ATOM     10  C   UNL     1     -10.932  -0.906  18.846  0.00  0.00    +0.000 A 
ATOM     11  S   UNL     1      -9.566  -1.348  19.786  0.00  0.00    +0.000 S 
ATOM     12  C   UNL     1      -9.277  -5.724  17.981  0.00  0.00    +0.000 A 
ATOM     13  H   UNL     1      -8.287  -8.835  18.339  0.00  0.00    +0.000 HD
ATOM     14  H   UNL     1      -7.586  -8.052  20.458  0.00  0.00    +0.000 HD
ATOM     15  H   UNL     1      -8.351  -3.780  20.520  0.00  0.00    +0.000 HD
ATOM     16  H   UNL     1     -12.418  -2.053  17.722  0.00  0.00    +0.000 HD
ATOM     17  H   UNL     1     -11.230   0.125  18.722  0.00  0.00    +0.000 HD
ENDROOT
BRANCH   1  25
ATOM     18  C   UNL     1      -8.682 -12.214  17.493  0.00  0.00    +0.000 A 
ATOM     19  C   UNL     1      -8.403 -13.419  16.828  0.00  0.00    +0.000 A 
ATOM     20  C   UNL     1      -8.384 -13.494  15.435  0.00  0.00    +0.000 A 
ATOM     21  C   UNL     1      -8.628 -12.365  14.652  0.00  0.00    +0.000 A 
ATOM     22  C   UNL     1      -8.901 -11.160  15.312  0.00  0.00    +0.000 A 
ATOM     23  S   UNL     1      -9.187  -9.603  14.638  0.00  0.00    +0.000 S 
ATOM     24  C   UNL     1      -9.295  -8.945  16.212  0.00  0.00    +0.000 A 
ATOM     25  N   UNL     1      -9.361  -7.611  16.419  0.00  0.00    +0.000 N 
ATOM     26  N   UNL     1      -9.231  -9.806  17.205  0.00  0.00    +0.000 NA
ATOM     27  C   UNL     1      -8.948 -11.069  16.704  0.00  0.00    +0.000 A 
ATOM     28  H   UNL     1      -8.187 -14.322  17.399  0.00  0.00    +0.000 HD
ATOM     29  H   UNL     1      -8.162 -14.443  14.950  0.00  0.00    +0.000 HD
ATOM     30  H   UNL     1      -8.587 -12.419  13.569  0.00  0.00    +0.000 HD
ATOM     31  H   UNL     1      -9.003  -7.038  15.658  0.00  0.00    +0.000 HD
BRANCH  18  32
ATOM     32  C   UNL     1      -8.631 -12.151  18.992  0.00  0.00    +0.000 C 
ATOM     33  H   UNL     1      -8.067 -11.283  19.347  0.00  0.00    +0.000 HD
ATOM     34  H   UNL     1      -8.157 -13.053  19.392  0.00  0.00    +0.000 HD
ATOM     35  H   UNL     1      -9.649 -12.083  19.393  0.00  0.00    +0.000 HD
ENDBRANCH  18  32
ENDBRANCH   1  25
BRANCH  12  36
ATOM     36  N   UNL     1      -9.668  -4.869  16.911  0.00  0.00    +0.000 N 
ATOM     37  H   UNL     1      -8.968  -4.906  16.158  0.00  0.00    +0.000 HD
ATOM     38  H   UNL     1      -9.751  -3.889  17.162  0.00  0.00    +0.000 HD
ENDBRANCH  12  36
TORSDOF 3
ENDMDL
MODEL 3
REMARK VINA RESULT:    -9.753      2.485      4.532
REMARK INTER + INTRA:         -11.440
REMARK INTER:                 -11.197
REMARK INTRA:                  -0.242
REMARK UNBOUND:                -0.547
REMARK  Name = 
REMARK  3 active torsions:
REMARK  status: ('A' for Active; 'I' for Inactive)
REMARK    1  A    between atoms: C_1  and  C_2
REMARK    2  A    between atoms: N_9  and  C_10
REMARK    3  A    between atoms: C_21  and  N_22
REMARK                            x       y       z     vdW  Elec       q    Type
REMARK                         _______ _______ _______ _____ _____    ______ ____
ROOT
ATOM      1  C   UNL     1      -9.298  -8.625  18.628  0.00  0.00    +0.000 A 
ATOM      2  N   UNL     1     -10.058  -8.604  17.528  0.00  0.00    +0.000 N 
ATOM      3  C   UNL     1     -10.546  -7.467  17.060  0.00  0.00    +0.000 A 
ATOM      4  N   UNL     1     -10.328  -6.267  17.620  0.00  0.00    +0.000 NA
ATOM      5  C   UNL     1      -9.534  -6.235  18.716  0.00  0.00    +0.000 A 
ATOM      6  N   UNL     1      -9.381  -4.955  19.260  0.00  0.00    +0.000 N 
ATOM      7  C   UNL     1      -8.334  -4.480  19.968  0.00  0.00    +0.000 A 
ATOM      8  N   UNL     1      -7.208  -5.128  20.189  0.00  0.00    +0.000 NA
ATOM      9  C   UNL     1      -6.390  -4.417  21.042  0.00  0.00    +0.000 A 
ATOM     10  C   UNL     1      -6.912  -3.227  21.491  0.00  0.00    +0.000 A 
ATOM     11  S   UNL     1      -8.425  -2.939  20.735  0.00  0.00    +0.000 S 
ATOM     12  C   UNL     1      -8.957  -7.413  19.256  0.00  0.00    +0.000 A 
ATOM     13  H   UNL     1     -10.317  -9.509  17.124  0.00  0.00    +0.000 HD
ATOM     14  H   UNL     1     -11.190  -7.521  16.188  0.00  0.00    +0.000 HD
ATOM     15  H   UNL     1      -9.980  -4.277  18.805  0.00  0.00    +0.000 HD
ATOM     16  H   UNL     1      -5.430  -4.828  21.325  0.00  0.00    +0.000 HD
ATOM     17  H   UNL     1      -6.491  -2.536  22.206  0.00  0.00    +0.000 HD
ENDROOT
BRANCH   1  25
ATOM     18  C   UNL     1      -8.639 -12.267  15.045  0.00  0.00    +0.000 A 
ATOM     19  C   UNL     1      -8.675 -13.598  14.602  0.00  0.00    +0.000 A 
ATOM     20  C   UNL     1      -8.681 -14.665  15.500  0.00  0.00    +0.000 A 
ATOM     21  C   UNL     1      -8.665 -14.443  16.879  0.00  0.00    +0.000 A 
ATOM     22  C   UNL     1      -8.634 -13.116  17.324  0.00  0.00    +0.000 A 
ATOM     23  S   UNL     1      -8.662 -12.520  18.938  0.00  0.00    +0.000 S 
ATOM     24  C   UNL     1      -8.684 -10.918  18.344  0.00  0.00    +0.000 A 
ATOM     25  N   UNL     1      -8.883  -9.861  19.163  0.00  0.00    +0.000 N 
ATOM     26  N   UNL     1      -8.576 -10.783  17.040  0.00  0.00    +0.000 NA
ATOM     27  C   UNL     1      -8.605 -12.034  16.441  0.00  0.00    +0.000 A 
ATOM     28  H   UNL     1      -8.708 -13.819  13.535  0.00  0.00    +0.000 HD
ATOM     29  H   UNL     1      -8.711 -15.686  15.124  0.00  0.00    +0.000 HD
ATOM     30  H   UNL     1      -8.696 -15.273  17.576  0.00  0.00    +0.000 HD
ATOM     31  H   UNL     1      -9.347 -10.078  20.042  0.00  0.00    +0.000 HD
BRANCH  18  32
ATOM     32  C   UNL     1      -8.700 -11.139  14.055  0.00  0.00    +0.000 C 
ATOM     33  H   UNL     1      -8.094 -11.341  13.166  0.00  0.00    +0.000 HD
ATOM     34  H   UNL     1      -8.336 -10.215  14.514  0.00  0.00    +0.000 HD
ATOM     35  H   UNL     1      -9.737 -10.987  13.734  0.00  0.00    +0.000 HD
ENDBRANCH  18  32
ENDBRANCH   1  25
BRANCH  12  36
ATOM     36  N   UNL     1      -8.345  -7.481  20.541  0.00  0.00    +0.000 N 
ATOM     37  H   UNL     1      -7.585  -8.174  20.532  0.00  0.00    +0.000 HD
ATOM     38  H   UNL     1      -8.968  -7.763  21.291  0.00  0.00    +0.000 HD
ENDBRANCH  12  36
TORSDOF 3
ENDMDL
MODEL 4
REMARK VINA RESULT:    -9.573      3.396      4.266
REMARK INTER + INTRA:         -11.239
REMARK INTER:                 -11.307
REMARK INTRA:                   0.068
REMARK UNBOUND:                -0.547
REMARK  Name = 
REMARK  3 active torsions:
REMARK  status: ('A' for Active; 'I' for Inactive)
REMARK    1  A    between atoms: C_1  and  C_2
REMARK    2  A    between atoms: N_9  and  C_10
REMARK    3  A    between atoms: C_21  and  N_22
REMARK                            x       y       z     vdW  Elec       q    Type
REMARK                         _______ _______ _______ _____ _____    ______ ____
ROOT
ATOM      1  C   UNL     1      -9.715  -6.787  16.777  0.00  0.00    +0.000 A 
ATOM      2  N   UNL     1      -9.063  -7.290  17.830  0.00  0.00    +0.000 N 
ATOM      3  C   UNL     1      -8.689  -6.513  18.833  0.00  0.00    +0.000 A 
ATOM      4  N   UNL     1      -8.926  -5.194  18.892  0.00  0.00    +0.000 NA
ATOM      5  C   UNL     1      -9.616  -4.646  17.864  0.00  0.00    +0.000 A 
ATOM      6  N   UNL     1      -9.795  -3.263  17.982  0.00  0.00    +0.000 N 
ATOM      7  C   UNL     1     -10.799  -2.516  17.476  0.00  0.00    +0.000 A 
ATOM      8  N   UNL     1     -11.859  -2.989  16.851  0.00  0.00    +0.000 NA
ATOM      9  C   UNL     1     -12.637  -1.963  16.356  0.00  0.00    +0.000 A 
ATOM     10  C   UNL     1     -12.148  -0.698  16.588  0.00  0.00    +0.000 A 
ATOM     11  S   UNL     1     -10.731  -0.795  17.551  0.00  0.00    +0.000 S 
ATOM     12  C   UNL     1     -10.069  -5.426  16.768  0.00  0.00    +0.000 A 
ATOM     13  H   UNL     1      -8.788  -8.276  17.780  0.00  0.00    +0.000 HD
ATOM     14  H   UNL     1      -8.126  -6.973  19.639  0.00  0.00    +0.000 HD
ATOM     15  H   UNL     1      -9.283  -2.882  18.768  0.00  0.00    +0.000 HD
ATOM     16  H   UNL     1     -13.540  -2.195  15.809  0.00  0.00    +0.000 HD
ATOM     17  H   UNL     1     -12.542   0.247  16.247  0.00  0.00    +0.000 HD
ENDROOT
BRANCH   1  25
ATOM     18  C   UNL     1      -8.716 -11.760  17.673  0.00  0.00    +0.000 A 
ATOM     19  C   UNL     1      -8.309 -13.041  17.267  0.00  0.00    +0.000 A 
ATOM     20  C   UNL     1      -8.325 -13.419  15.925  0.00  0.00    +0.000 A 
ATOM     21  C   UNL     1      -8.735 -12.527  14.932  0.00  0.00    +0.000 A 
ATOM     22  C   UNL     1      -9.136 -11.247  15.334  0.00  0.00    +0.000 A 
ATOM     23  S   UNL     1      -9.639  -9.921  14.358  0.00  0.00    +0.000 S 
ATOM     24  C   UNL     1      -9.777  -8.949  15.757  0.00  0.00    +0.000 A 
ATOM     25  N   UNL     1     -10.004  -7.618  15.676  0.00  0.00    +0.000 N 
ATOM     26  N   UNL     1      -9.573  -9.555  16.906  0.00  0.00    +0.000 NA
ATOM     27  C   UNL     1      -9.150 -10.856  16.673  0.00  0.00    +0.000 A 
ATOM     28  H   UNL     1      -7.962 -13.765  18.005  0.00  0.00    +0.000 HD
ATOM     29  H   UNL     1      -8.002 -14.420  15.644  0.00  0.00    +0.000 HD
ATOM     30  H   UNL     1      -8.723 -12.814  13.887  0.00  0.00    +0.000 HD
ATOM     31  H   UNL     1      -9.747  -7.191  14.789  0.00  0.00    +0.000 HD
BRANCH  18  32
ATOM     32  C   UNL     1      -8.624 -11.362  19.118  0.00  0.00    +0.000 C 
ATOM     33  H   UNL     1      -9.410 -10.653  19.398  0.00  0.00    +0.000 HD
ATOM     34  H   UNL     1      -7.655 -10.895  19.319  0.00  0.00    +0.000 HD
ATOM     35  H   UNL     1      -8.724 -12.251  19.752  0.00  0.00    +0.000 HD
ENDBRANCH  18  32
ENDBRANCH   1  25
BRANCH  12  36
ATOM     36  N   UNL     1     -10.556  -4.874  15.548  0.00  0.00    +0.000 N 
ATOM     37  H   UNL     1     -11.523  -4.549  15.671  0.00  0.00    +0.000 HD
ATOM     38  H   UNL     1     -10.580  -5.525  14.770  0.00  0.00    +0.000 HD
ENDBRANCH  12  36
TORSDOF 3
ENDMDL
MODEL 5
REMARK VINA RESULT:    -9.563      4.262      5.876
REMARK INTER + INTRA:         -11.228
REMARK INTER:                 -10.813
REMARK INTRA:                  -0.415
REMARK UNBOUND:                -0.547
REMARK  Name = 
REMARK  3 active torsions:
REMARK  status: ('A' for Active; 'I' for Inactive)
REMARK    1  A    between atoms: C_1  and  C_2
REMARK    2  A    between atoms: N_9  and  C_10
REMARK    3  A    between atoms: C_21  and  N_22
REMARK                            x       y       z     vdW  Elec       q    Type
REMARK                         _______ _______ _______ _____ _____    ______ ____
ROOT
ATOM      1  C   UNL     1     -11.124  -5.765  16.323  0.00  0.00    +0.000 A 
ATOM      2  N   UNL     1     -11.491  -5.508  17.582  0.00  0.00    +0.000 N 
ATOM      3  C   UNL     1     -11.283  -4.319  18.122  0.00  0.00    +0.000 A 
ATOM      4  N   UNL     1     -10.711  -3.289  17.478  0.00  0.00    +0.000 NA
ATOM      5  C   UNL     1     -10.355  -3.493  16.188  0.00  0.00    +0.000 A 
ATOM      6  N   UNL     1      -9.736  -2.386  15.595  0.00  0.00    +0.000 N 
ATOM      7  C   UNL     1      -9.726  -2.049  14.288  0.00  0.00    +0.000 A 
ATOM      8  N   UNL     1     -10.395  -2.669  13.338  0.00  0.00    +0.000 NA
ATOM      9  C   UNL     1     -10.080  -2.154  12.097  0.00  0.00    +0.000 A 
ATOM     10  C   UNL     1      -9.143  -1.146  12.107  0.00  0.00    +0.000 A 
ATOM     11  S   UNL     1      -8.729  -0.760  13.726  0.00  0.00    +0.000 S 
ATOM     12  C   UNL     1     -10.572  -4.736  15.539  0.00  0.00    +0.000 A 
ATOM     13  H   UNL     1     -11.851  -6.294  18.132  0.00  0.00    +0.000 HD
ATOM     14  H   UNL     1     -11.565  -4.184  19.161  0.00  0.00    +0.000 HD
ATOM     15  H   UNL     1      -9.559  -1.649  16.267  0.00  0.00    +0.000 HD
ATOM     16  H   UNL     1     -10.546  -2.569  11.214  0.00  0.00    +0.000 HD
ATOM     17  H   UNL     1      -8.696  -0.637  11.266  0.00  0.00    +0.000 HD
ENDROOT
BRANCH   1  25
ATOM     18  C   UNL     1      -8.881  -9.341  19.277  0.00  0.00    +0.000 A 
ATOM     19  C   UNL     1      -8.195 -10.551  19.461  0.00  0.00    +0.000 A 
ATOM     20  C   UNL     1      -8.191 -11.543  18.482  0.00  0.00    +0.000 A 
ATOM     21  C   UNL     1      -8.863 -11.360  17.271  0.00  0.00    +0.000 A 
ATOM     22  C   UNL     1      -9.544 -10.151  17.082  0.00  0.00    +0.000 A 
ATOM     23  S   UNL     1     -10.411  -9.609  15.697  0.00  0.00    +0.000 S 
ATOM     24  C   UNL     1     -10.707  -8.115  16.472  0.00  0.00    +0.000 A 
ATOM     25  N   UNL     1     -11.259  -7.072  15.812  0.00  0.00    +0.000 N 
ATOM     26  N   UNL     1     -10.297  -8.017  17.718  0.00  0.00    +0.000 NA
ATOM     27  C   UNL     1      -9.579  -9.155  18.059  0.00  0.00    +0.000 A 
ATOM     28  H   UNL     1      -7.640 -10.730  20.383  0.00  0.00    +0.000 HD
ATOM     29  H   UNL     1      -7.647 -12.470  18.656  0.00  0.00    +0.000 HD
ATOM     30  H   UNL     1      -8.837 -12.122  16.500  0.00  0.00    +0.000 HD
ATOM     31  H   UNL     1     -11.164  -7.104  14.799  0.00  0.00    +0.000 HD
BRANCH  18  32
ATOM     32  C   UNL     1      -8.812  -8.266  20.323  0.00  0.00    +0.000 C 
ATOM     33  H   UNL     1      -8.797  -7.265  19.882  0.00  0.00    +0.000 HD
ATOM     34  H   UNL     1      -7.907  -8.386  20.927  0.00  0.00    +0.000 HD
ATOM     35  H   UNL     1      -9.685  -8.336  20.981  0.00  0.00    +0.000 HD
ENDBRANCH  18  32
ENDBRANCH   1  25
BRANCH  12  36
ATOM     36  N   UNL     1      -9.986  -5.093  14.290  0.00  0.00    +0.000 N 
ATOM     37  H   UNL     1      -9.727  -4.245  13.769  0.00  0.00    +0.000 HD
ATOM     38  H   UNL     1     -10.596  -5.621  13.674  0.00  0.00    +0.000 HD
ENDBRANCH  12  36
TORSDOF 3
ENDMDL
MODEL 6
REMARK VINA RESULT:    -9.348      3.264      4.350
REMARK INTER + INTRA:         -10.988
REMARK INTER:                 -10.967
REMARK INTRA:                  -0.021
REMARK UNBOUND:                -0.547
REMARK  Name = 
REMARK  3 active torsions:
REMARK  status: ('A' for Active; 'I' for Inactive)
REMARK    1  A    between atoms: C_1  and  C_2
REMARK    2  A    between atoms: N_9  and  C_10
REMARK    3  A    between atoms: C_21  and  N_22
REMARK                            x       y       z     vdW  Elec       q    Type
REMARK                         _______ _______ _______ _____ _____    ______ ____
ROOT
ATOM      1  C   UNL     1     -10.259  -5.982  17.809  0.00  0.00    +0.000 A 
ATOM      2  N   UNL     1     -10.772  -6.521  16.698  0.00  0.00    +0.000 N 
ATOM      3  C   UNL     1     -11.478  -5.790  15.851  0.00  0.00    +0.000 A 
ATOM      4  N   UNL     1     -11.732  -4.483  16.015  0.00  0.00    +0.000 NA
ATOM      5  C   UNL     1     -11.201  -3.886  17.109  0.00  0.00    +0.000 A 
ATOM      6  N   UNL     1     -11.537  -2.532  17.227  0.00  0.00    +0.000 N 
ATOM      7  C   UNL     1     -10.828  -1.557  17.835  0.00  0.00    +0.000 A 
ATOM      8  N   UNL     1      -9.623  -1.700  18.348  0.00  0.00    +0.000 NA
ATOM      9  C   UNL     1      -9.224  -0.550  18.998  0.00  0.00    +0.000 A 
ATOM     10  C   UNL     1     -10.149   0.468  18.996  0.00  0.00    +0.000 A 
ATOM     11  S   UNL     1     -11.511   0.010  18.059  0.00  0.00    +0.000 S 
ATOM     12  C   UNL     1     -10.414  -4.604  18.045  0.00  0.00    +0.000 A 
ATOM     13  H   UNL     1     -10.672  -7.534  16.583  0.00  0.00    +0.000 HD
ATOM     14  H   UNL     1     -11.903  -6.294  14.989  0.00  0.00    +0.000 HD
ATOM     15  H   UNL     1     -12.214  -2.249  16.529  0.00  0.00    +0.000 HD
ATOM     16  H   UNL     1      -8.256  -0.518  19.479  0.00  0.00    +0.000 HD
ATOM     17  H   UNL     1     -10.091   1.428  19.487  0.00  0.00    +0.000 HD
ENDROOT
BRANCH   1  25
ATOM     18  C   UNL     1      -8.935 -10.572  15.882  0.00  0.00    +0.000 A 
ATOM     19  C   UNL     1      -8.714 -11.954  15.996  0.00  0.00    +0.000 A 
ATOM     20  C   UNL     1      -8.502 -12.557  17.235  0.00  0.00    +0.000 A 
ATOM     21  C   UNL     1      -8.516 -11.806  18.412  0.00  0.00    +0.000 A 
ATOM     22  C   UNL     1      -8.742 -10.428  18.301  0.00  0.00    +0.000 A 
ATOM     23  S   UNL     1      -8.869  -9.254  19.553  0.00  0.00    +0.000 S 
ATOM     24  C   UNL     1      -9.211  -8.052  18.387  0.00  0.00    +0.000 A 
ATOM     25  N   UNL     1      -9.604  -6.809  18.745  0.00  0.00    +0.000 N 
ATOM     26  N   UNL     1      -9.144  -8.431  17.129  0.00  0.00    +0.000 NA
ATOM     27  C   UNL     1      -8.933  -9.801  17.069  0.00  0.00    +0.000 A 
ATOM     28  H   UNL     1      -8.714 -12.584  15.106  0.00  0.00    +0.000 HD
ATOM     29  H   UNL     1      -8.336 -13.632  17.290  0.00  0.00    +0.000 HD
ATOM     30  H   UNL     1      -8.377 -12.280  19.377  0.00  0.00    +0.000 HD
ATOM     31  H   UNL     1     -10.009  -6.736  19.675  0.00  0.00    +0.000 HD
BRANCH  18  32
ATOM     32  C   UNL     1      -9.225  -9.963  14.540  0.00  0.00    +0.000 C 
ATOM     33  H   UNL     1      -9.746 -10.660  13.877  0.00  0.00    +0.000 HD
ATOM     34  H   UNL     1      -8.292  -9.660  14.054  0.00  0.00    +0.000 HD
ATOM     35  H   UNL     1      -9.857  -9.076  14.668  0.00  0.00    +0.000 HD
ENDBRANCH  18  32
ENDBRANCH   1  25
BRANCH  12  36
ATOM     36  N   UNL     1     -10.059  -4.107  19.332  0.00  0.00    +0.000 N 
ATOM     37  H   UNL     1      -9.361  -4.724  19.767  0.00  0.00    +0.000 HD
ATOM     38  H   UNL     1     -10.830  -4.053  19.991  0.00  0.00    +0.000 HD
ENDBRANCH  12  36
TORSDOF 3
ENDMDL
MODEL 7
REMARK VINA RESULT:    -8.404      2.802      8.253
REMARK INTER + INTRA:          -9.934
REMARK INTER:                  -9.979
REMARK INTRA:                   0.045
REMARK UNBOUND:                -0.547
REMARK  Name = 
REMARK  3 active torsions:
REMARK  status: ('A' for Active; 'I' for Inactive)
REMARK    1  A    between atoms: C_1  and  C_2
REMARK    2  A    between atoms: N_9  and  C_10
REMARK    3  A    between atoms: C_21  and  N_22
REMARK                            x       y       z     vdW  Elec       q    Type
REMARK                         _______ _______ _______ _____ _____    ______ ____
ROOT
ATOM      1  C   UNL     1      -9.364  -7.999  18.287  0.00  0.00    +0.000 A 
ATOM      2  N   UNL     1      -8.916  -7.721  19.515  0.00  0.00    +0.000 N 
ATOM      3  C   UNL     1      -8.467  -8.679  20.308  0.00  0.00    +0.000 A 
ATOM      4  N   UNL     1      -8.410  -9.975  19.966  0.00  0.00    +0.000 NA
ATOM      5  C   UNL     1      -8.820 -10.300  18.717  0.00  0.00    +0.000 A 
ATOM      6  N   UNL     1      -8.763 -11.671  18.446  0.00  0.00    +0.000 N 
ATOM      7  C   UNL     1      -8.595 -12.269  17.247  0.00  0.00    +0.000 A 
ATOM      8  N   UNL     1      -8.353 -11.643  16.113  0.00  0.00    +0.000 NA
ATOM      9  C   UNL     1      -8.349 -12.527  15.054  0.00  0.00    +0.000 A 
ATOM     10  C   UNL     1      -8.614 -13.835  15.388  0.00  0.00    +0.000 A 
ATOM     11  S   UNL     1      -8.763 -13.977  17.091  0.00  0.00    +0.000 S 
ATOM     12  C   UNL     1      -9.291  -9.319  17.806  0.00  0.00    +0.000 A 
ATOM     13  H   UNL     1      -9.024  -6.756  19.843  0.00  0.00    +0.000 HD
ATOM     14  H   UNL     1      -8.155  -8.396  21.309  0.00  0.00    +0.000 HD
ATOM     15  H   UNL     1      -8.525 -12.209  19.271  0.00  0.00    +0.000 HD
ATOM     16  H   UNL     1      -8.172 -12.159  14.053  0.00  0.00    +0.000 HD
ATOM     17  H   UNL     1      -8.727 -14.686  14.733  0.00  0.00    +0.000 HD
ENDROOT
BRANCH   1  25
ATOM     18  C   UNL     1      -8.624  -3.297  20.257  0.00  0.00    +0.000 A 
ATOM     19  C   UNL     1      -9.022  -1.973  20.501  0.00  0.00    +0.000 A 
ATOM     20  C   UNL     1     -10.009  -1.356  19.734  0.00  0.00    +0.000 A 
ATOM     21  C   UNL     1     -10.650  -2.042  18.701  0.00  0.00    +0.000 A 
ATOM     22  C   UNL     1     -10.260  -3.365  18.458  0.00  0.00    +0.000 A 
ATOM     23  S   UNL     1     -10.887  -4.478  17.306  0.00  0.00    +0.000 S 
ATOM     24  C   UNL     1      -9.839  -5.687  17.907  0.00  0.00    +0.000 A 
ATOM     25  N   UNL     1      -9.938  -6.974  17.507  0.00  0.00    +0.000 N 
ATOM     26  N   UNL     1      -8.987  -5.305  18.835  0.00  0.00    +0.000 NA
ATOM     27  C   UNL     1      -9.257  -3.993  19.199  0.00  0.00    +0.000 A 
ATOM     28  H   UNL     1      -8.563  -1.405  21.311  0.00  0.00    +0.000 HD
ATOM     29  H   UNL     1     -10.296  -0.328  19.951  0.00  0.00    +0.000 HD
ATOM     30  H   UNL     1     -11.436  -1.569  18.122  0.00  0.00    +0.000 HD
ATOM     31  H   UNL     1     -10.843  -7.238  17.125  0.00  0.00    +0.000 HD
BRANCH  18  32
ATOM     32  C   UNL     1      -7.605  -3.955  21.141  0.00  0.00    +0.000 C 
ATOM     33  H   UNL     1      -7.870  -3.877  22.200  0.00  0.00    +0.000 HD
ATOM     34  H   UNL     1      -6.625  -3.489  20.998  0.00  0.00    +0.000 HD
ATOM     35  H   UNL     1      -7.528  -5.019  20.886  0.00  0.00    +0.000 HD
ENDBRANCH  18  32
ENDBRANCH   1  25
BRANCH  12  36
ATOM     36  N   UNL     1      -9.977  -9.624  16.595  0.00  0.00    +0.000 N 
ATOM     37  H   UNL     1      -9.788  -8.898  15.892  0.00  0.00    +0.000 HD
ATOM     38  H   UNL     1     -10.988  -9.668  16.682  0.00  0.00    +0.000 HD
ENDBRANCH  12  36
TORSDOF 3
ENDMDL
MODEL 8
REMARK VINA RESULT:    -8.333      2.374      2.655
REMARK INTER + INTRA:          -9.854
REMARK INTER:                  -9.910
REMARK INTRA:                   0.056
REMARK UNBOUND:                -0.547
REMARK  Name = 
REMARK  3 active torsions:
REMARK  status: ('A' for Active; 'I' for Inactive)
REMARK    1  A    between atoms: C_1  and  C_2
REMARK    2  A    between atoms: N_9  and  C_10
REMARK    3  A    between atoms: C_21  and  N_22
REMARK                            x       y       z     vdW  Elec       q    Type
REMARK                         _______ _______ _______ _____ _____    ______ ____
ROOT
ATOM      1  C   UNL     1      -9.320  -4.927  18.583  0.00  0.00    +0.000 A 
ATOM      2  N   UNL     1      -8.621  -5.526  19.552  0.00  0.00    +0.000 N 
ATOM      3  C   UNL     1      -8.096  -4.826  20.544  0.00  0.00    +0.000 A 
ATOM      4  N   UNL     1      -8.216  -3.496  20.673  0.00  0.00    +0.000 NA
ATOM      5  C   UNL     1      -8.947  -2.851  19.733  0.00  0.00    +0.000 A 
ATOM      6  N   UNL     1      -8.999  -1.464  19.917  0.00  0.00    +0.000 N 
ATOM      7  C   UNL     1      -9.977  -0.618  19.533  0.00  0.00    +0.000 A 
ATOM      8  N   UNL     1     -11.124  -0.976  18.992  0.00  0.00    +0.000 NA
ATOM      9  C   UNL     1     -11.855   0.129  18.608  0.00  0.00    +0.000 A 
ATOM     10  C   UNL     1     -11.243   1.339  18.840  0.00  0.00    +0.000 A 
ATOM     11  S   UNL     1      -9.759   1.087  19.664  0.00  0.00    +0.000 S 
ATOM     12  C   UNL     1      -9.559  -3.543  18.656  0.00  0.00    +0.000 A 
ATOM     13  H   UNL     1      -8.436  -6.528  19.442  0.00  0.00    +0.000 HD
ATOM     14  H   UNL     1      -7.504  -5.364  21.278  0.00  0.00    +0.000 HD
ATOM     15  H   UNL     1      -8.388  -1.160  20.666  0.00  0.00    +0.000 HD
ATOM     16  H   UNL     1     -12.819  -0.006  18.138  0.00  0.00    +0.000 HD
ATOM     17  H   UNL     1     -11.586   2.327  18.571  0.00  0.00    +0.000 HD
ENDROOT
BRANCH   1  25
ATOM     18  C   UNL     1      -8.690 -10.000  19.214  0.00  0.00    +0.000 A 
ATOM     19  C   UNL     1      -8.434 -11.293  18.730  0.00  0.00    +0.000 A 
ATOM     20  C   UNL     1      -8.598 -11.611  17.382  0.00  0.00    +0.000 A 
ATOM     21  C   UNL     1      -9.011 -10.647  16.462  0.00  0.00    +0.000 A 
ATOM     22  C   UNL     1      -9.262  -9.355  16.941  0.00  0.00    +0.000 A 
ATOM     23  S   UNL     1      -9.727  -7.951  16.060  0.00  0.00    +0.000 S 
ATOM     24  C   UNL     1      -9.660  -7.031  17.499  0.00  0.00    +0.000 A 
ATOM     25  N   UNL     1      -9.775  -5.684  17.484  0.00  0.00    +0.000 N 
ATOM     26  N   UNL     1      -9.412  -7.700  18.604  0.00  0.00    +0.000 NA
ATOM     27  C   UNL     1      -9.126  -9.021  18.289  0.00  0.00    +0.000 A 
ATOM     28  H   UNL     1      -8.090 -12.074  19.409  0.00  0.00    +0.000 HD
ATOM     29  H   UNL     1      -8.389 -12.623  17.039  0.00  0.00    +0.000 HD
ATOM     30  H   UNL     1      -9.113 -10.889  15.409  0.00  0.00    +0.000 HD
ATOM     31  H   UNL     1      -9.557  -5.242  16.593  0.00  0.00    +0.000 HD
BRANCH  18  32
ATOM     32  C   UNL     1      -8.440  -9.672  20.658  0.00  0.00    +0.000 C 
ATOM     33  H   UNL     1      -7.925  -8.714  20.778  0.00  0.00    +0.000 HD
ATOM     34  H   UNL     1      -7.827 -10.451  21.121  0.00  0.00    +0.000 HD
ATOM     35  H   UNL     1      -9.396  -9.615  21.193  0.00  0.00    +0.000 HD
ENDBRANCH  18  32
ENDBRANCH   1  25
BRANCH  12  36
ATOM     36  N   UNL     1     -10.104  -2.901  17.507  0.00  0.00    +0.000 N 
ATOM     37  H   UNL     1     -10.642  -3.576  16.950  0.00  0.00    +0.000 HD
ATOM     38  H   UNL     1      -9.413  -2.509  16.875  0.00  0.00    +0.000 HD
ENDBRANCH  12  36
TORSDOF 3
ENDMDL
MODEL 9
REMARK VINA RESULT:    -8.331      4.078      5.326
REMARK INTER + INTRA:          -9.852
REMARK INTER:                  -9.814
REMARK INTRA:                  -0.037
REMARK UNBOUND:                -0.547
REMARK  Name = 
REMARK  3 active torsions:
REMARK  status: ('A' for Active; 'I' for Inactive)
REMARK    1  A    between atoms: C_1  and  C_2
REMARK    2  A    between atoms: N_9  and  C_10
REMARK    3  A    between atoms: C_21  and  N_22
REMARK                            x       y       z     vdW  Elec       q    Type
REMARK                         _______ _______ _______ _____ _____    ______ ____
ROOT
ATOM      1  C   UNL     1      -9.673  -5.052  16.198  0.00  0.00    +0.000 A 
ATOM      2  N   UNL     1      -9.365  -5.543  14.994  0.00  0.00    +0.000 N 
ATOM      3  C   UNL     1      -9.885  -5.025  13.894  0.00  0.00    +0.000 A 
ATOM      4  N   UNL     1     -10.736  -3.987  13.880  0.00  0.00    +0.000 NA
ATOM      5  C   UNL     1     -11.049  -3.433  15.075  0.00  0.00    +0.000 A 
ATOM      6  N   UNL     1     -11.965  -2.379  14.981  0.00  0.00    +0.000 N 
ATOM      7  C   UNL     1     -12.098  -1.326  15.815  0.00  0.00    +0.000 A 
ATOM      8  N   UNL     1     -11.304  -1.055  16.831  0.00  0.00    +0.000 NA
ATOM      9  C   UNL     1     -11.777   0.021  17.553  0.00  0.00    +0.000 A 
ATOM     10  C   UNL     1     -12.957   0.556  17.093  0.00  0.00    +0.000 A 
ATOM     11  S   UNL     1     -13.428  -0.242  15.648  0.00  0.00    +0.000 S 
ATOM     12  C   UNL     1     -10.508  -3.923  16.291  0.00  0.00    +0.000 A 
ATOM     13  H   UNL     1      -8.787  -6.389  14.970  0.00  0.00    +0.000 HD
ATOM     14  H   UNL     1      -9.628  -5.495  12.949  0.00  0.00    +0.000 HD
ATOM     15  H   UNL     1     -12.327  -2.276  14.041  0.00  0.00    +0.000 HD
ATOM     16  H   UNL     1     -11.234   0.357  18.426  0.00  0.00    +0.000 HD
ATOM     17  H   UNL     1     -13.547   1.351  17.523  0.00  0.00    +0.000 HD
ENDROOT
BRANCH   1  25
ATOM     18  C   UNL     1      -9.079 -10.134  15.603  0.00  0.00    +0.000 A 
ATOM     19  C   UNL     1      -9.092 -11.453  16.082  0.00  0.00    +0.000 A 
ATOM     20  C   UNL     1      -9.016 -11.734  17.445  0.00  0.00    +0.000 A 
ATOM     21  C   UNL     1      -8.936 -10.706  18.387  0.00  0.00    +0.000 A 
ATOM     22  C   UNL     1      -8.927  -9.389  17.913  0.00  0.00    +0.000 A 
ATOM     23  S   UNL     1      -8.890  -7.921  18.811  0.00  0.00    +0.000 S 
ATOM     24  C   UNL     1      -8.998  -7.031  17.356  0.00  0.00    +0.000 A 
ATOM     25  N   UNL     1      -9.189  -5.693  17.356  0.00  0.00    +0.000 N 
ATOM     26  N   UNL     1      -8.962  -7.733  16.244  0.00  0.00    +0.000 NA
ATOM     27  C   UNL     1      -8.980  -9.087  16.551  0.00  0.00    +0.000 A 
ATOM     28  H   UNL     1      -9.174 -12.287  15.384  0.00  0.00    +0.000 HD
ATOM     29  H   UNL     1      -9.031 -12.769  17.784  0.00  0.00    +0.000 HD
ATOM     30  H   UNL     1      -8.902 -10.925  19.449  0.00  0.00    +0.000 HD
ATOM     31  H   UNL     1      -9.600  -5.316  18.207  0.00  0.00    +0.000 HD
BRANCH  18  32
ATOM     32  C   UNL     1      -9.229  -9.862  14.134  0.00  0.00    +0.000 C 
ATOM     33  H   UNL     1      -8.905  -8.851  13.869  0.00  0.00    +0.000 HD
ATOM     34  H   UNL     1     -10.276  -9.975  13.835  0.00  0.00    +0.000 HD
ATOM     35  H   UNL     1      -8.623 -10.575  13.563  0.00  0.00    +0.000 HD
ENDBRANCH  18  32
ENDBRANCH   1  25
BRANCH  12  36
ATOM     36  N   UNL     1     -10.998  -3.564  17.580  0.00  0.00    +0.000 N 
ATOM     37  H   UNL     1     -11.682  -4.260  17.902  0.00  0.00    +0.000 HD
ATOM     38  H   UNL     1     -11.477  -2.669  17.615  0.00  0.00    +0.000 HD
ENDBRANCH  12  36
TORSDOF 3
ENDMDL
