MODEL 1
REMARK VINA RESULT:    -7.140      0.000      0.000
REMARK INTER + INTRA:         -10.676
REMARK INTER:                 -10.062
REMARK INTRA:                  -0.614
REMARK UNBOUND:                -0.614
REMARK  Name = 
REMARK  8 active torsions:
REMARK  status: ('A' for Active; 'I' for Inactive)
REMARK    1  A    between atoms: C_1  and  O_2
REMARK    2  A    between atoms: O_2  and  C_3
REMARK    3  A    between atoms: C_3  and  C_4
REMARK    4  A    between atoms: C_4  and  C_5
REMARK    5  A    between atoms: C_5  and  N_6
REMARK    6  A    between atoms: N_6  and  C_7
REMARK    7  A    between atoms: N_12  and  C_13
REMARK    8  A    between atoms: C_23  and  N_24
REMARK                            x       y       z     vdW  Elec       q    Type
REMARK                         _______ _______ _______ _____ _____    ______ ____
ROOT
ATOM      1  C   UNL     1      -9.562  -8.169  17.716  0.00  0.00    +0.000 A 
ATOM      2  N   UNL     1      -8.492  -7.509  18.191  0.00  0.00    +0.000 NA
ATOM      3  C   UNL     1      -8.206  -6.346  17.599  0.00  0.00    +0.000 A 
ATOM      4  N   UNL     1      -8.890  -5.821  16.584  0.00  0.00    +0.000 N 
ATOM      5  C   UNL     1      -9.981  -6.417  16.092  0.00  0.00    +0.000 A 
ATOM      6  N   UNL     1     -10.753  -5.808  15.097  0.00  0.00    +0.000 N 
ATOM      7  C   UNL     1     -10.392  -7.634  16.696  0.00  0.00    +0.000 A 
ATOM      8  H   UNL     1      -7.355  -5.786  17.963  0.00  0.00    +0.000 HD
ATOM      9  H   UNL     1      -8.564  -4.955  16.201  0.00  0.00    +0.000 HD
ATOM     10  H   UNL     1     -10.985  -6.447  14.333  0.00  0.00    +0.000 HD
ENDROOT
BRANCH   6  11
ATOM     11  C   UNL     1     -10.693  -4.380  14.738  0.00  0.00    +0.000 C 
ATOM     12  C   UNL     1     -10.683  -3.478  15.996  0.00  0.00    +0.000 C 
ATOM     13  C   UNL     1     -10.735  -1.997  15.591  0.00  0.00    +0.000 C 
ATOM     14  C   UNL     1      -9.461  -1.655  14.802  0.00  0.00    +0.000 C 
ATOM     15  C   UNL     1      -9.364  -2.549  13.555  0.00  0.00    +0.000 C 
ATOM     16  C   UNL     1     -10.575  -2.235  12.659  0.00  0.00    +0.000 C 
ATOM     17  C   UNL     1     -11.871  -2.567  13.405  0.00  0.00    +0.000 C 
ATOM     18  C   UNL     1     -11.970  -1.753  14.707  0.00  0.00    +0.000 C 
ATOM     19  C   UNL     1     -11.850  -4.052  13.753  0.00  0.00    +0.000 C 
ATOM     20  C   UNL     1      -9.379  -4.045  13.973  0.00  0.00    +0.000 C 
ATOM     21  H   UNL     1      -9.773  -3.669  16.583  0.00  0.00    +0.000 HD
ATOM     22  H   UNL     1     -11.508  -3.687  16.681  0.00  0.00    +0.000 HD
ATOM     23  H   UNL     1     -10.793  -1.371  16.489  0.00  0.00    +0.000 HD
ATOM     24  H   UNL     1      -8.576  -1.789  15.434  0.00  0.00    +0.000 HD
ATOM     25  H   UNL     1      -9.483  -0.597  14.507  0.00  0.00    +0.000 HD
ATOM     26  H   UNL     1      -8.440  -2.323  13.011  0.00  0.00    +0.000 HD
ATOM     27  H   UNL     1     -10.515  -2.815  11.729  0.00  0.00    +0.000 HD
ATOM     28  H   UNL     1     -10.575  -1.176  12.372  0.00  0.00    +0.000 HD
ATOM     29  H   UNL     1     -12.734  -2.354  12.766  0.00  0.00    +0.000 HD
ATOM     30  H   UNL     1     -12.880  -2.033  15.254  0.00  0.00    +0.000 HD
ATOM     31  H   UNL     1     -12.057  -0.687  14.470  0.00  0.00    +0.000 HD
ATOM     32  H   UNL     1     -11.731  -4.652  12.839  0.00  0.00    +0.000 HD
ATOM     33  H   UNL     1     -12.835  -4.317  14.141  0.00  0.00    +0.000 HD
ATOM     34  H   UNL     1      -8.504  -4.259  14.601  0.00  0.00    +0.000 HD
ATOM     35  H   UNL     1      -9.279  -4.680  13.083  0.00  0.00    +0.000 HD
ENDBRANCH   6  11
BRANCH   7  36
ATOM     36  N   UNL     1     -11.504  -8.346  16.176  0.00  0.00    +0.000 N 
ATOM     37  H   UNL     1     -11.793  -8.017  15.255  0.00  0.00    +0.000 HD
ATOM     38  H   UNL     1     -12.304  -8.378  16.800  0.00  0.00    +0.000 HD
ENDBRANCH   7  36
BRANCH   1  39
ATOM     39  N   UNL     1      -9.780  -9.474  18.181  0.00  0.00    +0.000 N 
ATOM     40  H   UNL     1     -10.221  -9.500  19.090  0.00  0.00    +0.000 HD
BRANCH  39  41
ATOM     41  C   UNL     1      -8.624 -10.374  18.115  0.00  0.00    +0.000 C 
ATOM     42  H   UNL     1      -7.816  -9.940  17.513  0.00  0.00    +0.000 HD
ATOM     43  H   UNL     1      -8.243 -10.548  19.128  0.00  0.00    +0.000 HD
BRANCH  41  44
ATOM     44  C   UNL     1      -9.068 -11.694  17.484  0.00  0.00    +0.000 C 
ATOM     45  H   UNL     1      -8.543 -12.519  17.981  0.00  0.00    +0.000 HD
ATOM     46  H   UNL     1     -10.141 -11.844  17.652  0.00  0.00    +0.000 HD
BRANCH  44  47
ATOM     47  C   UNL     1      -8.774 -11.741  15.991  0.00  0.00    +0.000 C 
ATOM     48  H   UNL     1      -7.714 -11.518  15.823  0.00  0.00    +0.000 HD
ATOM     49  H   UNL     1      -8.996 -12.736  15.589  0.00  0.00    +0.000 HD
BRANCH  47  50
ATOM     50  O   UNL     1      -9.575 -10.763  15.332  0.00  0.00    +0.000 OA
BRANCH  50  51
ATOM     51  C   UNL     1      -8.817 -10.016  14.388  0.00  0.00    +0.000 C 
ATOM     52  H   UNL     1      -8.835  -8.965  14.688  0.00  0.00    +0.000 HD
ATOM     53  H   UNL     1      -9.261 -10.103  13.392  0.00  0.00    +0.000 HD
ATOM     54  H   UNL     1      -7.779 -10.359  14.371  0.00  0.00    +0.000 HD
ENDBRANCH  50  51
ENDBRANCH  47  50
ENDBRANCH  44  47
ENDBRANCH  41  44
ENDBRANCH  39  41
ENDBRANCH   1  39
TORSDOF 8
ENDMDL
MODEL 2
REMARK VINA RESULT:    -7.119      0.104      1.523
REMARK INTER + INTRA:         -10.646
REMARK INTER:                  -9.907
REMARK INTRA:                  -0.739
REMARK UNBOUND:                -0.614
REMARK  Name = 
REMARK  8 active torsions:
REMARK  status: ('A' for Active; 'I' for Inactive)
REMARK    1  A    between atoms: C_1  and  O_2
REMARK    2  A    between atoms: O_2  and  C_3
REMARK    3  A    between atoms: C_3  and  C_4
REMARK    4  A    between atoms: C_4  and  C_5
REMARK    5  A    between atoms: C_5  and  N_6
REMARK    6  A    between atoms: N_6  and  C_7
REMARK    7  A    between atoms: N_12  and  C_13
REMARK    8  A    between atoms: C_23  and  N_24
REMARK                            x       y       z     vdW  Elec       q    Type
REMARK                         _______ _______ _______ _____ _____    ______ ____
ROOT
ATOM      1  C   UNL     1      -9.583  -8.099  17.732  0.00  0.00    +0.000 A 
ATOM      2  N   UNL     1      -8.518  -7.420  18.191  0.00  0.00    +0.000 NA
ATOM      3  C   UNL     1      -8.245  -6.266  17.576  0.00  0.00    +0.000 A 
ATOM      4  N   UNL     1      -8.935  -5.768  16.552  0.00  0.00    +0.000 N 
ATOM      5  C   UNL     1     -10.022  -6.383  16.075  0.00  0.00    +0.000 A 
ATOM      6  N   UNL     1     -10.801  -5.801  15.070  0.00  0.00    +0.000 N 
ATOM      7  C   UNL     1     -10.420  -7.592  16.703  0.00  0.00    +0.000 A 
ATOM      8  H   UNL     1      -7.398  -5.691  17.927  0.00  0.00    +0.000 HD
ATOM      9  H   UNL     1      -8.618  -4.906  16.152  0.00  0.00    +0.000 HD
ATOM     10  H   UNL     1     -11.028  -6.456  14.319  0.00  0.00    +0.000 HD
ENDROOT
BRANCH   6  11
ATOM     11  C   UNL     1     -10.756  -4.380  14.683  0.00  0.00    +0.000 C 
ATOM     12  C   UNL     1      -9.458  -4.044  13.908  0.00  0.00    +0.000 C 
ATOM     13  C   UNL     1      -9.385  -2.538  13.618  0.00  0.00    +0.000 C 
ATOM     14  C   UNL     1     -10.552  -2.155  12.694  0.00  0.00    +0.000 C 
ATOM     15  C   UNL     1     -11.889  -2.506  13.369  0.00  0.00    +0.000 C 
ATOM     16  C   UNL     1     -12.002  -1.662  14.651  0.00  0.00    +0.000 C 
ATOM     17  C   UNL     1     -10.857  -2.016  15.606  0.00  0.00    +0.000 C 
ATOM     18  C   UNL     1      -9.495  -1.757  14.938  0.00  0.00    +0.000 C 
ATOM     19  C   UNL     1     -10.965  -3.499  15.947  0.00  0.00    +0.000 C 
ATOM     20  C   UNL     1     -11.924  -4.020  13.718  0.00  0.00    +0.000 C 
ATOM     21  H   UNL     1      -9.434  -4.604  12.962  0.00  0.00    +0.000 HD
ATOM     22  H   UNL     1      -8.551  -4.348  14.437  0.00  0.00    +0.000 HD
ATOM     23  H   UNL     1      -8.433  -2.302  13.127  0.00  0.00    +0.000 HD
ATOM     24  H   UNL     1     -10.464  -2.676  11.734  0.00  0.00    +0.000 HD
ATOM     25  H   UNL     1     -10.512  -1.079  12.476  0.00  0.00    +0.000 HD
ATOM     26  H   UNL     1     -12.717  -2.260  12.696  0.00  0.00    +0.000 HD
ATOM     27  H   UNL     1     -12.969  -1.844  15.136  0.00  0.00    +0.000 HD
ATOM     28  H   UNL     1     -11.964  -0.592  14.409  0.00  0.00    +0.000 HD
ATOM     29  H   UNL     1     -10.941  -1.424  16.523  0.00  0.00    +0.000 HD
ATOM     30  H   UNL     1      -8.684  -2.057  15.616  0.00  0.00    +0.000 HD
ATOM     31  H   UNL     1      -9.373  -0.685  14.752  0.00  0.00    +0.000 HD
ATOM     32  H   UNL     1     -11.952  -3.715  16.381  0.00  0.00    +0.000 HD
ATOM     33  H   UNL     1     -10.250  -3.711  16.743  0.00  0.00    +0.000 HD
ATOM     34  H   UNL     1     -11.855  -4.610  12.795  0.00  0.00    +0.000 HD
ATOM     35  H   UNL     1     -12.890  -4.273  14.172  0.00  0.00    +0.000 HD
ENDBRANCH   6  11
BRANCH   7  36
ATOM     36  N   UNL     1     -11.526  -8.324  16.199  0.00  0.00    +0.000 N 
ATOM     37  H   UNL     1     -11.345  -8.745  15.289  0.00  0.00    +0.000 HD
ATOM     38  H   UNL     1     -12.394  -7.798  16.172  0.00  0.00    +0.000 HD
ENDBRANCH   7  36
BRANCH   1  39
ATOM     39  N   UNL     1      -9.788  -9.397  18.222  0.00  0.00    +0.000 N 
ATOM     40  H   UNL     1     -10.209  -9.409  19.140  0.00  0.00    +0.000 HD
BRANCH  39  41
ATOM     41  C   UNL     1      -8.631 -10.295  18.147  0.00  0.00    +0.000 C 
ATOM     42  H   UNL     1      -7.835  -9.868  17.523  0.00  0.00    +0.000 HD
ATOM     43  H   UNL     1      -8.229 -10.454  19.155  0.00  0.00    +0.000 HD
BRANCH  41  44
ATOM     44  C   UNL     1      -9.084 -11.625  17.542  0.00  0.00    +0.000 C 
ATOM     45  H   UNL     1      -8.553 -12.442  18.047  0.00  0.00    +0.000 HD
ATOM     46  H   UNL     1     -10.155 -11.771  17.726  0.00  0.00    +0.000 HD
BRANCH  44  47
ATOM     47  C   UNL     1      -8.807 -11.696  16.047  0.00  0.00    +0.000 C 
ATOM     48  H   UNL     1      -7.748 -11.485  15.863  0.00  0.00    +0.000 HD
ATOM     49  H   UNL     1      -9.043 -12.694  15.663  0.00  0.00    +0.000 HD
BRANCH  47  50
ATOM     50  O   UNL     1      -9.607 -10.721  15.383  0.00  0.00    +0.000 OA
BRANCH  50  51
ATOM     51  C   UNL     1      -8.860 -10.012  14.402  0.00  0.00    +0.000 C 
ATOM     52  H   UNL     1      -8.218 -10.725  13.878  0.00  0.00    +0.000 HD
ATOM     53  H   UNL     1      -8.227  -9.257  14.879  0.00  0.00    +0.000 HD
ATOM     54  H   UNL     1      -9.528  -9.541  13.675  0.00  0.00    +0.000 HD
ENDBRANCH  50  51
ENDBRANCH  47  50
ENDBRANCH  44  47
ENDBRANCH  41  44
ENDBRANCH  39  41
ENDBRANCH   1  39
TORSDOF 8
ENDMDL
MODEL 3
REMARK VINA RESULT:    -6.866      0.280      1.581
REMARK INTER + INTRA:         -10.290
REMARK INTER:                  -9.795
REMARK INTRA:                  -0.495
REMARK UNBOUND:                -0.614
REMARK  Name = 
REMARK  8 active torsions:
REMARK  status: ('A' for Active; 'I' for Inactive)
REMARK    1  A    between atoms: C_1  and  O_2
REMARK    2  A    between atoms: O_2  and  C_3
REMARK    3  A    between atoms: C_3  and  C_4
REMARK    4  A    between atoms: C_4  and  C_5
REMARK    5  A    between atoms: C_5  and  N_6
REMARK    6  A    between atoms: N_6  and  C_7
REMARK    7  A    between atoms: N_12  and  C_13
REMARK    8  A    between atoms: C_23  and  N_24
REMARK                            x       y       z     vdW  Elec       q    Type
REMARK                         _______ _______ _______ _____ _____    ______ ____
ROOT
ATOM      1  C   UNL     1      -9.779  -7.960  17.838  0.00  0.00    +0.000 A 
ATOM      2  N   UNL     1      -8.907  -7.182  18.504  0.00  0.00    +0.000 NA
ATOM      3  C   UNL     1      -8.633  -5.997  17.952  0.00  0.00    +0.000 A 
ATOM      4  N   UNL     1      -9.144  -5.557  16.804  0.00  0.00    +0.000 N 
ATOM      5  C   UNL     1     -10.039  -6.272  16.115  0.00  0.00    +0.000 A 
ATOM      6  N   UNL     1     -10.649  -5.757  14.967  0.00  0.00    +0.000 N 
ATOM      7  C   UNL     1     -10.432  -7.525  16.655  0.00  0.00    +0.000 A 
ATOM      8  H   UNL     1      -7.941  -5.345  18.467  0.00  0.00    +0.000 HD
ATOM      9  H   UNL     1      -8.842  -4.661  16.472  0.00  0.00    +0.000 HD
ATOM     10  H   UNL     1     -10.647  -6.422  14.189  0.00  0.00    +0.000 HD
ENDROOT
BRANCH   6  11
ATOM     11  C   UNL     1     -10.671  -4.334  14.588  0.00  0.00    +0.000 C 
ATOM     12  C   UNL     1     -11.890  -4.002  13.694  0.00  0.00    +0.000 C 
ATOM     13  C   UNL     1     -11.824  -2.542  13.223  0.00  0.00    +0.000 C 
ATOM     14  C   UNL     1     -11.925  -1.621  14.450  0.00  0.00    +0.000 C 
ATOM     15  C   UNL     1     -10.773  -1.922  15.423  0.00  0.00    +0.000 C 
ATOM     16  C   UNL     1      -9.453  -1.605  14.699  0.00  0.00    +0.000 C 
ATOM     17  C   UNL     1      -9.308  -2.506  13.468  0.00  0.00    +0.000 C 
ATOM     18  C   UNL     1     -10.488  -2.297  12.502  0.00  0.00    +0.000 C 
ATOM     19  C   UNL     1      -9.309  -3.957  13.940  0.00  0.00    +0.000 C 
ATOM     20  C   UNL     1     -10.810  -3.419  15.841  0.00  0.00    +0.000 C 
ATOM     21  H   UNL     1     -12.820  -4.168  14.257  0.00  0.00    +0.000 HD
ATOM     22  H   UNL     1     -11.971  -4.654  12.820  0.00  0.00    +0.000 HD
ATOM     23  H   UNL     1     -12.657  -2.338  12.539  0.00  0.00    +0.000 HD
ATOM     24  H   UNL     1     -12.889  -1.760  14.950  0.00  0.00    +0.000 HD
ATOM     25  H   UNL     1     -11.881  -0.572  14.127  0.00  0.00    +0.000 HD
ATOM     26  H   UNL     1     -10.864  -1.286  16.310  0.00  0.00    +0.000 HD
ATOM     27  H   UNL     1      -8.606  -1.757  15.379  0.00  0.00    +0.000 HD
ATOM     28  H   UNL     1      -9.429  -0.552  14.390  0.00  0.00    +0.000 HD
ATOM     29  H   UNL     1      -8.365  -2.289  12.955  0.00  0.00    +0.000 HD
ATOM     30  H   UNL     1     -10.396  -2.981  11.647  0.00  0.00    +0.000 HD
ATOM     31  H   UNL     1     -10.460  -1.279  12.100  0.00  0.00    +0.000 HD
ATOM     32  H   UNL     1      -8.501  -4.117  14.669  0.00  0.00    +0.000 HD
ATOM     33  H   UNL     1      -9.050  -4.585  13.086  0.00  0.00    +0.000 HD
ATOM     34  H   UNL     1     -11.750  -3.629  16.367  0.00  0.00    +0.000 HD
ATOM     35  H   UNL     1     -10.005  -3.623  16.559  0.00  0.00    +0.000 HD
ENDBRANCH   6  11
BRANCH   7  36
ATOM     36  N   UNL     1     -11.329  -8.358  15.938  0.00  0.00    +0.000 N 
ATOM     37  H   UNL     1     -11.480  -9.261  16.387  0.00  0.00    +0.000 HD
ATOM     38  H   UNL     1     -11.080  -8.493  14.962  0.00  0.00    +0.000 HD
ENDBRANCH   7  36
BRANCH   1  39
ATOM     39  N   UNL     1      -9.946  -9.279  18.284  0.00  0.00    +0.000 N 
ATOM     40  H   UNL     1     -10.389  -9.335  19.190  0.00  0.00    +0.000 HD
BRANCH  39  41
ATOM     41  C   UNL     1      -8.754 -10.130  18.211  0.00  0.00    +0.000 C 
ATOM     42  H   UNL     1      -7.989  -9.690  17.559  0.00  0.00    +0.000 HD
ATOM     43  H   UNL     1      -8.327 -10.242  19.215  0.00  0.00    +0.000 HD
BRANCH  41  44
ATOM     44  C   UNL     1      -9.163 -11.495  17.656  0.00  0.00    +0.000 C 
ATOM     45  H   UNL     1      -8.667 -12.280  18.242  0.00  0.00    +0.000 HD
ATOM     46  H   UNL     1     -10.244 -11.636  17.773  0.00  0.00    +0.000 HD
BRANCH  44  47
ATOM     47  C   UNL     1      -8.783 -11.652  16.190  0.00  0.00    +0.000 C 
ATOM     48  H   UNL     1      -7.711 -11.461  16.069  0.00  0.00    +0.000 HD
ATOM     49  H   UNL     1      -9.004 -12.668  15.844  0.00  0.00    +0.000 HD
BRANCH  47  50
ATOM     50  O   UNL     1      -9.522 -10.708  15.419  0.00  0.00    +0.000 OA
BRANCH  50  51
ATOM     51  C   UNL     1      -8.718 -10.116  14.405  0.00  0.00    +0.000 C 
ATOM     52  H   UNL     1      -8.068 -10.890  13.987  0.00  0.00    +0.000 HD
ATOM     53  H   UNL     1      -8.091  -9.326  14.831  0.00  0.00    +0.000 HD
ATOM     54  H   UNL     1      -9.343  -9.712  13.604  0.00  0.00    +0.000 HD
ENDBRANCH  50  51
ENDBRANCH  47  50
ENDBRANCH  44  47
ENDBRANCH  41  44
ENDBRANCH  39  41
ENDBRANCH   1  39
TORSDOF 8
ENDMDL
MODEL 4
REMARK VINA RESULT:    -6.860      5.257      8.014
REMARK INTER + INTRA:         -10.281
REMARK INTER:                  -9.914
REMARK INTRA:                  -0.367
REMARK UNBOUND:                -0.614
REMARK  Name = 
REMARK  8 active torsions:
REMARK  status: ('A' for Active; 'I' for Inactive)
REMARK    1  A    between atoms: C_1  and  O_2
REMARK    2  A    between atoms: O_2  and  C_3
REMARK    3  A    between atoms: C_3  and  C_4
REMARK    4  A    between atoms: C_4  and  C_5
REMARK    5  A    between atoms: C_5  and  N_6
REMARK    6  A    between atoms: N_6  and  C_7
REMARK    7  A    between atoms: N_12  and  C_13
REMARK    8  A    between atoms: C_23  and  N_24
REMARK                            x       y       z     vdW  Elec       q    Type
REMARK                         _______ _______ _______ _____ _____    ______ ____
ROOT
ATOM      1  C   UNL     1      -8.848  -1.526  20.842  0.00  0.00    +0.000 A 
ATOM      2  N   UNL     1      -9.361  -0.961  19.736  0.00  0.00    +0.000 NA
ATOM      3  C   UNL     1      -9.508  -1.763  18.678  0.00  0.00    +0.000 A 
ATOM      4  N   UNL     1      -9.171  -3.051  18.648  0.00  0.00    +0.000 N 
ATOM      5  C   UNL     1      -8.687  -3.674  19.727  0.00  0.00    +0.000 A 
ATOM      6  N   UNL     1      -8.436  -5.050  19.717  0.00  0.00    +0.000 N 
ATOM      7  C   UNL     1      -8.546  -2.912  20.916  0.00  0.00    +0.000 A 
ATOM      8  H   UNL     1      -9.926  -1.340  17.774  0.00  0.00    +0.000 HD
ATOM      9  H   UNL     1      -9.301  -3.546  17.786  0.00  0.00    +0.000 HD
ATOM     10  H   UNL     1      -7.519  -5.285  20.105  0.00  0.00    +0.000 HD
ENDROOT
BRANCH   6  11
ATOM     11  C   UNL     1      -8.969  -5.999  18.724  0.00  0.00    +0.000 C 
ATOM     12  C   UNL     1      -7.926  -6.316  17.625  0.00  0.00    +0.000 C 
ATOM     13  C   UNL     1      -8.545  -7.216  16.545  0.00  0.00    +0.000 C 
ATOM     14  C   UNL     1      -8.927  -8.562  17.182  0.00  0.00    +0.000 C 
ATOM     15  C   UNL     1      -9.928  -8.331  18.326  0.00  0.00    +0.000 C 
ATOM     16  C   UNL     1     -11.201  -7.716  17.719  0.00  0.00    +0.000 C 
ATOM     17  C   UNL     1     -10.867  -6.366  17.076  0.00  0.00    +0.000 C 
ATOM     18  C   UNL     1      -9.804  -6.538  15.977  0.00  0.00    +0.000 C 
ATOM     19  C   UNL     1     -10.310  -5.449  18.161  0.00  0.00    +0.000 C 
ATOM     20  C   UNL     1      -9.315  -7.368  19.380  0.00  0.00    +0.000 C 
ATOM     21  H   UNL     1      -7.057  -6.821  18.072  0.00  0.00    +0.000 HD
ATOM     22  H   UNL     1      -7.516  -5.422  17.150  0.00  0.00    +0.000 HD
ATOM     23  H   UNL     1      -7.819  -7.381  15.741  0.00  0.00    +0.000 HD
ATOM     24  H   UNL     1      -8.034  -9.072  17.557  0.00  0.00    +0.000 HD
ATOM     25  H   UNL     1      -9.371  -9.217  16.420  0.00  0.00    +0.000 HD
ATOM     26  H   UNL     1     -10.175  -9.289  18.797  0.00  0.00    +0.000 HD
ATOM     27  H   UNL     1     -11.963  -7.585  18.498  0.00  0.00    +0.000 HD
ATOM     28  H   UNL     1     -11.629  -8.388  16.965  0.00  0.00    +0.000 HD
ATOM     29  H   UNL     1     -11.772  -5.921  16.651  0.00  0.00    +0.000 HD
ATOM     30  H   UNL     1      -9.540  -5.558  15.556  0.00  0.00    +0.000 HD
ATOM     31  H   UNL     1     -10.214  -7.137  15.157  0.00  0.00    +0.000 HD
ATOM     32  H   UNL     1     -11.036  -5.351  18.981  0.00  0.00    +0.000 HD
ATOM     33  H   UNL     1     -10.221  -4.447  17.737  0.00  0.00    +0.000 HD
ATOM     34  H   UNL     1      -8.416  -7.824  19.815  0.00  0.00    +0.000 HD
ATOM     35  H   UNL     1     -10.020  -7.229  20.210  0.00  0.00    +0.000 HD
ENDBRANCH   6  11
BRANCH   7  36
ATOM     36  N   UNL     1      -7.977  -3.500  22.074  0.00  0.00    +0.000 N 
ATOM     37  H   UNL     1      -7.439  -4.342  21.871  0.00  0.00    +0.000 HD
ATOM     38  H   UNL     1      -8.645  -3.687  22.816  0.00  0.00    +0.000 HD
ENDBRANCH   7  36
BRANCH   1  39
ATOM     39  N   UNL     1      -8.503  -0.680  21.906  0.00  0.00    +0.000 N 
ATOM     40  H   UNL     1      -7.707  -1.012  22.432  0.00  0.00    +0.000 HD
BRANCH  39  41
ATOM     41  C   UNL     1      -9.607  -0.286  22.788  0.00  0.00    +0.000 C 
ATOM     42  H   UNL     1      -9.962   0.727  22.553  0.00  0.00    +0.000 HD
ATOM     43  H   UNL     1     -10.443  -0.982  22.655  0.00  0.00    +0.000 HD
BRANCH  41  44
ATOM     44  C   UNL     1      -9.113  -0.323  24.234  0.00  0.00    +0.000 C 
ATOM     45  H   UNL     1      -8.029  -0.150  24.243  0.00  0.00    +0.000 HD
ATOM     46  H   UNL     1      -9.576   0.490  24.806  0.00  0.00    +0.000 HD
BRANCH  44  47
ATOM     47  C   UNL     1      -9.412  -1.655  24.906  0.00  0.00    +0.000 C 
ATOM     48  H   UNL     1      -8.470  -2.163  25.143  0.00  0.00    +0.000 HD
ATOM     49  H   UNL     1      -9.974  -1.498  25.833  0.00  0.00    +0.000 HD
BRANCH  47  50
ATOM     50  O   UNL     1     -10.174  -2.462  24.011  0.00  0.00    +0.000 OA
BRANCH  50  51
ATOM     51  C   UNL     1     -11.373  -2.929  24.618  0.00  0.00    +0.000 C 
ATOM     52  H   UNL     1     -12.185  -2.836  23.892  0.00  0.00    +0.000 HD
ATOM     53  H   UNL     1     -11.616  -2.319  25.494  0.00  0.00    +0.000 HD
ATOM     54  H   UNL     1     -11.275  -3.980  24.904  0.00  0.00    +0.000 HD
ENDBRANCH  50  51
ENDBRANCH  47  50
ENDBRANCH  44  47
ENDBRANCH  41  44
ENDBRANCH  39  41
ENDBRANCH   1  39
TORSDOF 8
ENDMDL
MODEL 5
REMARK VINA RESULT:    -6.675      1.782      2.554
REMARK INTER + INTRA:         -10.020
REMARK INTER:                  -9.918
REMARK INTRA:                  -0.102
REMARK UNBOUND:                -0.614
REMARK  Name = 
REMARK  8 active torsions:
REMARK  status: ('A' for Active; 'I' for Inactive)
REMARK    1  A    between atoms: C_1  and  O_2
REMARK    2  A    between atoms: O_2  and  C_3
REMARK    3  A    between atoms: C_3  and  C_4
REMARK    4  A    between atoms: C_4  and  C_5
REMARK    5  A    between atoms: C_5  and  N_6
REMARK    6  A    between atoms: N_6  and  C_7
REMARK    7  A    between atoms: N_12  and  C_13
REMARK    8  A    between atoms: C_23  and  N_24
REMARK                            x       y       z     vdW  Elec       q    Type
REMARK                         _______ _______ _______ _____ _____    ______ ____
ROOT
ATOM      1  C   UNL     1      -9.216  -9.125  17.417  0.00  0.00    +0.000 A 
ATOM      2  N   UNL     1      -9.307  -8.955  18.747  0.00  0.00    +0.000 NA
ATOM      3  C   UNL     1      -9.494  -7.702  19.170  0.00  0.00    +0.000 A 
ATOM      4  N   UNL     1      -9.578  -6.636  18.377  0.00  0.00    +0.000 N 
ATOM      5  C   UNL     1      -9.527  -6.748  17.046  0.00  0.00    +0.000 A 
ATOM      6  N   UNL     1      -9.722  -5.638  16.217  0.00  0.00    +0.000 N 
ATOM      7  C   UNL     1      -9.383  -8.051  16.502  0.00  0.00    +0.000 A 
ATOM      8  H   UNL     1      -9.579  -7.533  20.236  0.00  0.00    +0.000 HD
ATOM      9  H   UNL     1      -9.690  -5.740  18.810  0.00  0.00    +0.000 HD
ATOM     10  H   UNL     1      -9.016  -5.569  15.480  0.00  0.00    +0.000 HD
ENDROOT
BRANCH   6  11
ATOM     11  C   UNL     1     -10.326  -4.363  16.642  0.00  0.00    +0.000 C 
ATOM     12  C   UNL     1      -9.555  -3.737  17.829  0.00  0.00    +0.000 C 
ATOM     13  C   UNL     1     -10.272  -2.471  18.322  0.00  0.00    +0.000 C 
ATOM     14  C   UNL     1     -10.259  -1.424  17.196  0.00  0.00    +0.000 C 
ATOM     15  C   UNL     1     -10.965  -1.989  15.952  0.00  0.00    +0.000 C 
ATOM     16  C   UNL     1     -12.431  -2.263  16.328  0.00  0.00    +0.000 C 
ATOM     17  C   UNL     1     -12.492  -3.307  17.447  0.00  0.00    +0.000 C 
ATOM     18  C   UNL     1     -11.725  -2.818  18.688  0.00  0.00    +0.000 C 
ATOM     19  C   UNL     1     -11.837  -4.587  16.937  0.00  0.00    +0.000 C 
ATOM     20  C   UNL     1     -10.271  -3.305  15.501  0.00  0.00    +0.000 C 
ATOM     21  H   UNL     1      -8.532  -3.483  17.514  0.00  0.00    +0.000 HD
ATOM     22  H   UNL     1      -9.428  -4.423  18.669  0.00  0.00    +0.000 HD
ATOM     23  H   UNL     1      -9.753  -2.073  19.202  0.00  0.00    +0.000 HD
ATOM     24  H   UNL     1      -9.229  -1.141  16.952  0.00  0.00    +0.000 HD
ATOM     25  H   UNL     1     -10.768  -0.512  17.536  0.00  0.00    +0.000 HD
ATOM     26  H   UNL     1     -10.927  -1.252  15.142  0.00  0.00    +0.000 HD
ATOM     27  H   UNL     1     -12.984  -2.618  15.450  0.00  0.00    +0.000 HD
ATOM     28  H   UNL     1     -12.920  -1.338  16.660  0.00  0.00    +0.000 HD
ATOM     29  H   UNL     1     -13.535  -3.512  17.711  0.00  0.00    +0.000 HD
ATOM     30  H   UNL     1     -11.738  -3.593  19.465  0.00  0.00    +0.000 HD
ATOM     31  H   UNL     1     -12.226  -1.938  19.108  0.00  0.00    +0.000 HD
ATOM     32  H   UNL     1     -12.340  -4.929  16.020  0.00  0.00    +0.000 HD
ATOM     33  H   UNL     1     -12.020  -5.372  17.673  0.00  0.00    +0.000 HD
ATOM     34  H   UNL     1      -9.230  -3.094  15.223  0.00  0.00    +0.000 HD
ATOM     35  H   UNL     1     -10.757  -3.689  14.595  0.00  0.00    +0.000 HD
ENDBRANCH   6  11
BRANCH   7  36
ATOM     36  N   UNL     1      -9.258  -8.227  15.100  0.00  0.00    +0.000 N 
ATOM     37  H   UNL     1      -8.372  -7.882  14.733  0.00  0.00    +0.000 HD
ATOM     38  H   UNL     1     -10.029  -7.844  14.563  0.00  0.00    +0.000 HD
ENDBRANCH   7  36
BRANCH   1  39
ATOM     39  N   UNL     1      -8.833 -10.389  16.947  0.00  0.00    +0.000 N 
ATOM     40  H   UNL     1      -9.323 -10.662  16.106  0.00  0.00    +0.000 HD
BRANCH  39  41
ATOM     41  C   UNL     1      -8.831 -11.464  17.944  0.00  0.00    +0.000 C 
ATOM     42  H   UNL     1      -8.117 -11.257  18.752  0.00  0.00    +0.000 HD
ATOM     43  H   UNL     1      -9.832 -11.553  18.384  0.00  0.00    +0.000 HD
BRANCH  41  44
ATOM     44  C   UNL     1      -8.442 -12.771  17.252  0.00  0.00    +0.000 C 
ATOM     45  H   UNL     1      -7.612 -13.231  17.804  0.00  0.00    +0.000 HD
ATOM     46  H   UNL     1      -9.283 -13.474  17.284  0.00  0.00    +0.000 HD
BRANCH  44  47
ATOM     47  C   UNL     1      -8.018 -12.548  15.807  0.00  0.00    +0.000 C 
ATOM     48  H   UNL     1      -7.957 -11.472  15.608  0.00  0.00    +0.000 HD
ATOM     49  H   UNL     1      -7.037 -13.000  15.622  0.00  0.00    +0.000 HD
BRANCH  47  50
ATOM     50  O   UNL     1      -8.991 -13.135  14.946  0.00  0.00    +0.000 OA
BRANCH  50  51
ATOM     51  C   UNL     1      -8.848 -14.549  14.883  0.00  0.00    +0.000 C 
ATOM     52  H   UNL     1      -7.786 -14.783  14.772  0.00  0.00    +0.000 HD
ATOM     53  H   UNL     1      -9.386 -14.946  14.017  0.00  0.00    +0.000 HD
ATOM     54  H   UNL     1      -9.215 -15.014  15.802  0.00  0.00    +0.000 HD
ENDBRANCH  50  51
ENDBRANCH  47  50
ENDBRANCH  44  47
ENDBRANCH  41  44
ENDBRANCH  39  41
ENDBRANCH   1  39
TORSDOF 8
ENDMDL
MODEL 6
REMARK VINA RESULT:    -6.674      1.657      2.844
REMARK INTER + INTRA:         -10.020
REMARK INTER:                  -9.956
REMARK INTRA:                  -0.064
REMARK UNBOUND:                -0.614
REMARK  Name = 
REMARK  8 active torsions:
REMARK  status: ('A' for Active; 'I' for Inactive)
REMARK    1  A    between atoms: C_1  and  O_2
REMARK    2  A    between atoms: O_2  and  C_3
REMARK    3  A    between atoms: C_3  and  C_4
REMARK    4  A    between atoms: C_4  and  C_5
REMARK    5  A    between atoms: C_5  and  N_6
REMARK    6  A    between atoms: N_6  and  C_7
REMARK    7  A    between atoms: N_12  and  C_13
REMARK    8  A    between atoms: C_23  and  N_24
REMARK                            x       y       z     vdW  Elec       q    Type
REMARK                         _______ _______ _______ _____ _____    ______ ____
ROOT
ATOM      1  C   UNL     1      -9.823  -8.048  16.669  0.00  0.00    +0.000 A 
ATOM      2  N   UNL     1      -8.833  -7.817  15.789  0.00  0.00    +0.000 NA
ATOM      3  C   UNL     1      -8.886  -6.654  15.134  0.00  0.00    +0.000 A 
ATOM      4  N   UNL     1      -9.843  -5.740  15.283  0.00  0.00    +0.000 N 
ATOM      5  C   UNL     1     -10.834  -5.902  16.166  0.00  0.00    +0.000 A 
ATOM      6  N   UNL     1     -11.775  -4.892  16.391  0.00  0.00    +0.000 N 
ATOM      7  C   UNL     1     -10.830  -7.086  16.947  0.00  0.00    +0.000 A 
ATOM      8  H   UNL     1      -8.100  -6.435  14.425  0.00  0.00    +0.000 HD
ATOM      9  H   UNL     1      -9.794  -4.917  14.715  0.00  0.00    +0.000 HD
ATOM     10  H   UNL     1     -12.736  -5.242  16.392  0.00  0.00    +0.000 HD
ENDROOT
BRANCH   6  11
ATOM     11  C   UNL     1     -11.612  -3.482  15.995  0.00  0.00    +0.000 C 
ATOM     12  C   UNL     1     -11.624  -3.320  14.456  0.00  0.00    +0.000 C 
ATOM     13  C   UNL     1     -11.340  -1.861  14.071  0.00  0.00    +0.000 C 
ATOM     14  C   UNL     1     -12.475  -0.976  14.609  0.00  0.00    +0.000 C 
ATOM     15  C   UNL     1     -12.567  -1.118  16.137  0.00  0.00    +0.000 C 
ATOM     16  C   UNL     1     -11.245  -0.608  16.736  0.00  0.00    +0.000 C 
ATOM     17  C   UNL     1     -10.082  -1.467  16.229  0.00  0.00    +0.000 C 
ATOM     18  C   UNL     1     -10.004  -1.420  14.693  0.00  0.00    +0.000 C 
ATOM     19  C   UNL     1     -10.331  -2.908  16.665  0.00  0.00    +0.000 C 
ATOM     20  C   UNL     1     -12.790  -2.608  16.518  0.00  0.00    +0.000 C 
ATOM     21  H   UNL     1     -12.604  -3.622  14.058  0.00  0.00    +0.000 HD
ATOM     22  H   UNL     1     -10.905  -3.967  13.949  0.00  0.00    +0.000 HD
ATOM     23  H   UNL     1     -11.287  -1.771  12.979  0.00  0.00    +0.000 HD
ATOM     24  H   UNL     1     -13.427  -1.255  14.144  0.00  0.00    +0.000 HD
ATOM     25  H   UNL     1     -12.285   0.072  14.339  0.00  0.00    +0.000 HD
ATOM     26  H   UNL     1     -13.397  -0.510  16.514  0.00  0.00    +0.000 HD
ATOM     27  H   UNL     1     -11.290  -0.644  17.832  0.00  0.00    +0.000 HD
ATOM     28  H   UNL     1     -11.078   0.440  16.458  0.00  0.00    +0.000 HD
ATOM     29  H   UNL     1      -9.140  -1.113  16.661  0.00  0.00    +0.000 HD
ATOM     30  H   UNL     1      -9.195  -2.075  14.340  0.00  0.00    +0.000 HD
ATOM     31  H   UNL     1      -9.755  -0.404  14.367  0.00  0.00    +0.000 HD
ATOM     32  H   UNL     1     -10.439  -2.957  17.759  0.00  0.00    +0.000 HD
ATOM     33  H   UNL     1      -9.432  -3.485  16.441  0.00  0.00    +0.000 HD
ATOM     34  H   UNL     1     -13.742  -2.956  16.096  0.00  0.00    +0.000 HD
ATOM     35  H   UNL     1     -12.886  -2.703  17.607  0.00  0.00    +0.000 HD
ENDBRANCH   6  11
BRANCH   7  36
ATOM     36  N   UNL     1     -11.890  -7.344  17.854  0.00  0.00    +0.000 N 
ATOM     37  H   UNL     1     -12.768  -7.569  17.387  0.00  0.00    +0.000 HD
ATOM     38  H   UNL     1     -12.039  -6.609  18.539  0.00  0.00    +0.000 HD
ENDBRANCH   7  36
BRANCH   1  39
ATOM     39  N   UNL     1      -9.906  -9.329  17.233  0.00  0.00    +0.000 N 
ATOM     40  H   UNL     1      -9.196  -9.499  17.931  0.00  0.00    +0.000 HD
BRANCH  39  41
ATOM     41  C   UNL     1     -10.002 -10.439  16.279  0.00  0.00    +0.000 C 
ATOM     42  H   UNL     1     -10.964 -10.960  16.370  0.00  0.00    +0.000 HD
ATOM     43  H   UNL     1      -9.919 -10.048  15.258  0.00  0.00    +0.000 HD
BRANCH  41  44
ATOM     44  C   UNL     1      -8.868 -11.425  16.561  0.00  0.00    +0.000 C 
ATOM     45  H   UNL     1      -9.011 -12.318  15.939  0.00  0.00    +0.000 HD
ATOM     46  H   UNL     1      -7.908 -10.979  16.272  0.00  0.00    +0.000 HD
BRANCH  44  47
ATOM     47  C   UNL     1      -8.820 -11.837  18.026  0.00  0.00    +0.000 C 
ATOM     48  H   UNL     1      -8.326 -11.051  18.608  0.00  0.00    +0.000 HD
ATOM     49  H   UNL     1      -9.833 -11.984  18.415  0.00  0.00    +0.000 HD
BRANCH  47  50
ATOM     50  O   UNL     1      -8.078 -13.049  18.139  0.00  0.00    +0.000 OA
BRANCH  50  51
ATOM     51  C   UNL     1      -8.830 -14.063  18.794  0.00  0.00    +0.000 C 
ATOM     52  H   UNL     1      -9.382 -13.603  19.619  0.00  0.00    +0.000 HD
ATOM     53  H   UNL     1      -8.161 -14.826  19.205  0.00  0.00    +0.000 HD
ATOM     54  H   UNL     1      -9.546 -14.519  18.104  0.00  0.00    +0.000 HD
ENDBRANCH  50  51
ENDBRANCH  47  50
ENDBRANCH  44  47
ENDBRANCH  41  44
ENDBRANCH  39  41
ENDBRANCH   1  39
TORSDOF 8
ENDMDL
MODEL 7
REMARK VINA RESULT:    -6.619      5.785      7.971
REMARK INTER + INTRA:          -9.942
REMARK INTER:                  -9.305
REMARK INTRA:                  -0.637
REMARK UNBOUND:                -0.614
REMARK  Name = 
REMARK  8 active torsions:
REMARK  status: ('A' for Active; 'I' for Inactive)
REMARK    1  A    between atoms: C_1  and  O_2
REMARK    2  A    between atoms: O_2  and  C_3
REMARK    3  A    between atoms: C_3  and  C_4
REMARK    4  A    between atoms: C_4  and  C_5
REMARK    5  A    between atoms: C_5  and  N_6
REMARK    6  A    between atoms: N_6  and  C_7
REMARK    7  A    between atoms: N_12  and  C_13
REMARK    8  A    between atoms: C_23  and  N_24
REMARK                            x       y       z     vdW  Elec       q    Type
REMARK                         _______ _______ _______ _____ _____    ______ ____
ROOT
ATOM      1  C   UNL     1     -11.078  -2.363  17.624  0.00  0.00    +0.000 A 
ATOM      2  N   UNL     1     -10.165  -1.422  17.327  0.00  0.00    +0.000 NA
ATOM      3  C   UNL     1      -9.573  -0.827  18.366  0.00  0.00    +0.000 A 
ATOM      4  N   UNL     1      -9.836  -1.091  19.645  0.00  0.00    +0.000 N 
ATOM      5  C   UNL     1     -10.710  -2.038  19.999  0.00  0.00    +0.000 A 
ATOM      6  N   UNL     1     -10.903  -2.381  21.342  0.00  0.00    +0.000 N 
ATOM      7  C   UNL     1     -11.350  -2.761  18.959  0.00  0.00    +0.000 A 
ATOM      8  H   UNL     1      -8.827  -0.070  18.161  0.00  0.00    +0.000 HD
ATOM      9  H   UNL     1      -9.349  -0.559  20.340  0.00  0.00    +0.000 HD
ATOM     10  H   UNL     1     -11.892  -2.438  21.595  0.00  0.00    +0.000 HD
ENDROOT
BRANCH   6  11
ATOM     11  C   UNL     1      -9.983  -2.039  22.441  0.00  0.00    +0.000 C 
ATOM     12  C   UNL     1      -9.734  -0.513  22.518  0.00  0.00    +0.000 C 
ATOM     13  C   UNL     1      -8.687  -0.198  23.597  0.00  0.00    +0.000 C 
ATOM     14  C   UNL     1      -9.245  -0.616  24.966  0.00  0.00    +0.000 C 
ATOM     15  C   UNL     1      -9.571  -2.119  24.960  0.00  0.00    +0.000 C 
ATOM     16  C   UNL     1      -8.256  -2.883  24.731  0.00  0.00    +0.000 C 
ATOM     17  C   UNL     1      -7.664  -2.499  23.370  0.00  0.00    +0.000 C 
ATOM     18  C   UNL     1      -7.398  -0.985  23.302  0.00  0.00    +0.000 C 
ATOM     19  C   UNL     1      -8.677  -2.870  22.292  0.00  0.00    +0.000 C 
ATOM     20  C   UNL     1     -10.582  -2.436  23.822  0.00  0.00    +0.000 C 
ATOM     21  H   UNL     1     -10.674   0.006  22.754  0.00  0.00    +0.000 HD
ATOM     22  H   UNL     1      -9.406  -0.082  21.569  0.00  0.00    +0.000 HD
ATOM     23  H   UNL     1      -8.471   0.877  23.598  0.00  0.00    +0.000 HD
ATOM     24  H   UNL     1     -10.143  -0.034  25.204  0.00  0.00    +0.000 HD
ATOM     25  H   UNL     1      -8.506  -0.394  25.748  0.00  0.00    +0.000 HD
ATOM     26  H   UNL     1      -9.997  -2.407  25.927  0.00  0.00    +0.000 HD
ATOM     27  H   UNL     1      -8.437  -3.964  24.772  0.00  0.00    +0.000 HD
ATOM     28  H   UNL     1      -7.535  -2.650  25.525  0.00  0.00    +0.000 HD
ATOM     29  H   UNL     1      -6.733  -3.049  23.200  0.00  0.00    +0.000 HD
ATOM     30  H   UNL     1      -7.018  -0.717  22.308  0.00  0.00    +0.000 HD
ATOM     31  H   UNL     1      -6.620  -0.715  24.024  0.00  0.00    +0.000 HD
ATOM     32  H   UNL     1      -8.919  -3.942  22.353  0.00  0.00    +0.000 HD
ATOM     33  H   UNL     1      -8.193  -2.743  21.322  0.00  0.00    +0.000 HD
ATOM     34  H   UNL     1     -11.520  -1.895  24.004  0.00  0.00    +0.000 HD
ATOM     35  H   UNL     1     -10.836  -3.504  23.839  0.00  0.00    +0.000 HD
ENDBRANCH   6  11
BRANCH   7  36
ATOM     36  N   UNL     1     -12.336  -3.733  19.271  0.00  0.00    +0.000 N 
ATOM     37  H   UNL     1     -13.228  -3.558  18.811  0.00  0.00    +0.000 HD
ATOM     38  H   UNL     1     -12.480  -3.873  20.266  0.00  0.00    +0.000 HD
ENDBRANCH   7  36
BRANCH   1  39
ATOM     39  N   UNL     1     -11.853  -2.872  16.572  0.00  0.00    +0.000 N 
ATOM     40  H   UNL     1     -12.661  -3.387  16.892  0.00  0.00    +0.000 HD
BRANCH  39  41
ATOM     41  C   UNL     1     -11.117  -3.607  15.538  0.00  0.00    +0.000 C 
ATOM     42  H   UNL     1     -11.260  -3.153  14.549  0.00  0.00    +0.000 HD
ATOM     43  H   UNL     1     -10.046  -3.589  15.773  0.00  0.00    +0.000 HD
BRANCH  41  44
ATOM     44  C   UNL     1     -11.627  -5.048  15.507  0.00  0.00    +0.000 C 
ATOM     45  H   UNL     1     -12.615  -5.085  15.984  0.00  0.00    +0.000 HD
ATOM     46  H   UNL     1     -11.755  -5.375  14.469  0.00  0.00    +0.000 HD
BRANCH  44  47
ATOM     47  C   UNL     1     -10.687  -6.002  16.231  0.00  0.00    +0.000 C 
ATOM     48  H   UNL     1     -10.876  -7.026  15.890  0.00  0.00    +0.000 HD
ATOM     49  H   UNL     1      -9.644  -5.744  16.020  0.00  0.00    +0.000 HD
BRANCH  47  50
ATOM     50  O   UNL     1     -10.933  -5.917  17.633  0.00  0.00    +0.000 OA
BRANCH  50  51
ATOM     51  C   UNL     1      -9.762  -6.205  18.388  0.00  0.00    +0.000 C 
ATOM     52  H   UNL     1      -9.971  -7.064  19.031  0.00  0.00    +0.000 HD
ATOM     53  H   UNL     1      -9.498  -5.351  19.019  0.00  0.00    +0.000 HD
ATOM     54  H   UNL     1      -8.930  -6.458  17.725  0.00  0.00    +0.000 HD
ENDBRANCH  50  51
ENDBRANCH  47  50
ENDBRANCH  44  47
ENDBRANCH  41  44
ENDBRANCH  39  41
ENDBRANCH   1  39
TORSDOF 8
ENDMDL
MODEL 8
REMARK VINA RESULT:    -6.519      2.554      3.870
REMARK INTER + INTRA:          -9.801
REMARK INTER:                  -9.791
REMARK INTRA:                  -0.010
REMARK UNBOUND:                -0.614
REMARK  Name = 
REMARK  8 active torsions:
REMARK  status: ('A' for Active; 'I' for Inactive)
REMARK    1  A    between atoms: C_1  and  O_2
REMARK    2  A    between atoms: O_2  and  C_3
REMARK    3  A    between atoms: C_3  and  C_4
REMARK    4  A    between atoms: C_4  and  C_5
REMARK    5  A    between atoms: C_5  and  N_6
REMARK    6  A    between atoms: N_6  and  C_7
REMARK    7  A    between atoms: N_12  and  C_13
REMARK    8  A    between atoms: C_23  and  N_24
REMARK                            x       y       z     vdW  Elec       q    Type
REMARK                         _______ _______ _______ _____ _____    ______ ____
ROOT
ATOM      1  C   UNL     1     -10.132  -8.104  16.301  0.00  0.00    +0.000 A 
ATOM      2  N   UNL     1      -9.047  -7.611  15.680  0.00  0.00    +0.000 NA
ATOM      3  C   UNL     1      -8.860  -6.292  15.780  0.00  0.00    +0.000 A 
ATOM      4  N   UNL     1      -9.669  -5.455  16.428  0.00  0.00    +0.000 N 
ATOM      5  C   UNL     1     -10.744  -5.894  17.090  0.00  0.00    +0.000 A 
ATOM      6  N   UNL     1     -11.529  -5.023  17.854  0.00  0.00    +0.000 N 
ATOM      7  C   UNL     1     -10.994  -7.291  17.084  0.00  0.00    +0.000 A 
ATOM      8  H   UNL     1      -7.991  -5.864  15.298  0.00  0.00    +0.000 HD
ATOM      9  H   UNL     1      -9.442  -4.480  16.410  0.00  0.00    +0.000 HD
ATOM     10  H   UNL     1     -12.530  -5.138  17.676  0.00  0.00    +0.000 HD
ENDROOT
BRANCH   6  11
ATOM     11  C   UNL     1     -11.112  -3.683  18.302  0.00  0.00    +0.000 C 
ATOM     12  C   UNL     1     -11.349  -2.618  17.205  0.00  0.00    +0.000 C 
ATOM     13  C   UNL     1     -10.802  -1.256  17.657  0.00  0.00    +0.000 C 
ATOM     14  C   UNL     1     -11.590  -0.790  18.891  0.00  0.00    +0.000 C 
ATOM     15  C   UNL     1     -11.451  -1.825  20.020  0.00  0.00    +0.000 C 
ATOM     16  C   UNL     1      -9.964  -1.897  20.407  0.00  0.00    +0.000 C 
ATOM     17  C   UNL     1      -9.137  -2.364  19.204  0.00  0.00    +0.000 C 
ATOM     18  C   UNL     1      -9.314  -1.399  18.019  0.00  0.00    +0.000 C 
ATOM     19  C   UNL     1      -9.637  -3.745  18.793  0.00  0.00    +0.000 C 
ATOM     20  C   UNL     1     -11.946  -3.214  19.530  0.00  0.00    +0.000 C 
ATOM     21  H   UNL     1     -12.426  -2.532  16.997  0.00  0.00    +0.000 HD
ATOM     22  H   UNL     1     -10.898  -2.881  16.245  0.00  0.00    +0.000 HD
ATOM     23  H   UNL     1     -10.917  -0.525  16.847  0.00  0.00    +0.000 HD
ATOM     24  H   UNL     1     -12.646  -0.648  18.636  0.00  0.00    +0.000 HD
ATOM     25  H   UNL     1     -11.210   0.185  19.224  0.00  0.00    +0.000 HD
ATOM     26  H   UNL     1     -12.038  -1.505  20.887  0.00  0.00    +0.000 HD
ATOM     27  H   UNL     1      -9.828  -2.588  21.249  0.00  0.00    +0.000 HD
ATOM     28  H   UNL     1      -9.606  -0.915  20.741  0.00  0.00    +0.000 HD
ATOM     29  H   UNL     1      -8.080  -2.426  19.479  0.00  0.00    +0.000 HD
ATOM     30  H   UNL     1      -8.753  -1.769  17.149  0.00  0.00    +0.000 HD
ATOM     31  H   UNL     1      -8.894  -0.420  18.275  0.00  0.00    +0.000 HD
ATOM     32  H   UNL     1      -9.566  -4.441  19.642  0.00  0.00    +0.000 HD
ATOM     33  H   UNL     1      -8.950  -4.139  18.043  0.00  0.00    +0.000 HD
ATOM     34  H   UNL     1     -13.011  -3.151  19.269  0.00  0.00    +0.000 HD
ATOM     35  H   UNL     1     -11.874  -3.943  20.347  0.00  0.00    +0.000 HD
ENDBRANCH   6  11
BRANCH   7  36
ATOM     36  N   UNL     1     -12.155  -7.808  17.714  0.00  0.00    +0.000 N 
ATOM     37  H   UNL     1     -12.674  -8.456  17.122  0.00  0.00    +0.000 HD
ATOM     38  H   UNL     1     -12.780  -7.098  18.082  0.00  0.00    +0.000 HD
ENDBRANCH   7  36
BRANCH   1  39
ATOM     39  N   UNL     1     -10.465  -9.445  16.062  0.00  0.00    +0.000 N 
ATOM     40  H   UNL     1     -11.457  -9.623  16.131  0.00  0.00    +0.000 HD
BRANCH  39  41
ATOM     41  C   UNL     1      -9.686 -10.437  16.810  0.00  0.00    +0.000 C 
ATOM     42  H   UNL     1      -8.872  -9.961  17.374  0.00  0.00    +0.000 HD
ATOM     43  H   UNL     1     -10.342 -10.952  17.523  0.00  0.00    +0.000 HD
BRANCH  41  44
ATOM     44  C   UNL     1      -9.092 -11.439  15.820  0.00  0.00    +0.000 C 
ATOM     45  H   UNL     1      -9.892 -11.807  15.165  0.00  0.00    +0.000 HD
ATOM     46  H   UNL     1      -8.354 -10.939  15.182  0.00  0.00    +0.000 HD
BRANCH  44  47
ATOM     47  C   UNL     1      -8.440 -12.621  16.525  0.00  0.00    +0.000 C 
ATOM     48  H   UNL     1      -8.907 -13.551  16.183  0.00  0.00    +0.000 HD
ATOM     49  H   UNL     1      -7.369 -12.657  16.299  0.00  0.00    +0.000 HD
BRANCH  47  50
ATOM     50  O   UNL     1      -8.633 -12.482  17.931  0.00  0.00    +0.000 OA
BRANCH  50  51
ATOM     51  C   UNL     1      -8.790 -13.747  18.564  0.00  0.00    +0.000 C 
ATOM     52  H   UNL     1      -9.242 -14.437  17.846  0.00  0.00    +0.000 HD
ATOM     53  H   UNL     1      -9.455 -13.658  19.428  0.00  0.00    +0.000 HD
ATOM     54  H   UNL     1      -7.819 -14.146  18.871  0.00  0.00    +0.000 HD
ENDBRANCH  50  51
ENDBRANCH  47  50
ENDBRANCH  44  47
ENDBRANCH  41  44
ENDBRANCH  39  41
ENDBRANCH   1  39
TORSDOF 8
ENDMDL
MODEL 9
REMARK VINA RESULT:    -6.506      1.784      2.850
REMARK INTER + INTRA:          -9.783
REMARK INTER:                  -9.194
REMARK INTRA:                  -0.588
REMARK UNBOUND:                -0.614
REMARK  Name = 
REMARK  8 active torsions:
REMARK  status: ('A' for Active; 'I' for Inactive)
REMARK    1  A    between atoms: C_1  and  O_2
REMARK    2  A    between atoms: O_2  and  C_3
REMARK    3  A    between atoms: C_3  and  C_4
REMARK    4  A    between atoms: C_4  and  C_5
REMARK    5  A    between atoms: C_5  and  N_6
REMARK    6  A    between atoms: N_6  and  C_7
REMARK    7  A    between atoms: N_12  and  C_13
REMARK    8  A    between atoms: C_23  and  N_24
REMARK                            x       y       z     vdW  Elec       q    Type
REMARK                         _______ _______ _______ _____ _____    ______ ____
ROOT
ATOM      1  C   UNL     1     -10.630  -5.510  17.921  0.00  0.00    +0.000 A 
ATOM      2  N   UNL     1     -10.353  -4.305  18.449  0.00  0.00    +0.000 NA
ATOM      3  C   UNL     1     -10.210  -3.300  17.581  0.00  0.00    +0.000 A 
ATOM      4  N   UNL     1     -10.307  -3.418  16.258  0.00  0.00    +0.000 N 
ATOM      5  C   UNL     1     -10.612  -4.584  15.679  0.00  0.00    +0.000 A 
ATOM      6  N   UNL     1     -10.815  -4.676  14.298  0.00  0.00    +0.000 N 
ATOM      7  C   UNL     1     -10.835  -5.699  16.528  0.00  0.00    +0.000 A 
ATOM      8  H   UNL     1      -9.994  -2.316  17.974  0.00  0.00    +0.000 HD
ATOM      9  H   UNL     1     -10.150  -2.598  15.704  0.00  0.00    +0.000 HD
ATOM     10  H   UNL     1     -10.316  -5.464  13.879  0.00  0.00    +0.000 HD
ENDROOT
BRANCH   6  11
ATOM     11  C   UNL     1     -11.066  -3.532  13.403  0.00  0.00    +0.000 C 
ATOM     12  C   UNL     1      -9.754  -2.791  13.048  0.00  0.00    +0.000 C 
ATOM     13  C   UNL     1     -10.058  -1.541  12.209  0.00  0.00    +0.000 C 
ATOM     14  C   UNL     1     -10.682  -1.980  10.875  0.00  0.00    +0.000 C 
ATOM     15  C   UNL     1     -11.973  -2.773  11.140  0.00  0.00    +0.000 C 
ATOM     16  C   UNL     1     -12.966  -1.832  11.842  0.00  0.00    +0.000 C 
ATOM     17  C   UNL     1     -12.385  -1.373  13.183  0.00  0.00    +0.000 C 
ATOM     18  C   UNL     1     -11.046  -0.643  12.972  0.00  0.00    +0.000 C 
ATOM     19  C   UNL     1     -12.141  -2.609  14.043  0.00  0.00    +0.000 C 
ATOM     20  C   UNL     1     -11.664  -4.000  12.044  0.00  0.00    +0.000 C 
ATOM     21  H   UNL     1      -9.089  -3.462  12.484  0.00  0.00    +0.000 HD
ATOM     22  H   UNL     1      -9.175  -2.498  13.927  0.00  0.00    +0.000 HD
ATOM     23  H   UNL     1      -9.129  -0.990  12.019  0.00  0.00    +0.000 HD
ATOM     24  H   UNL     1      -9.972  -2.589  10.306  0.00  0.00    +0.000 HD
ATOM     25  H   UNL     1     -10.904  -1.094  10.264  0.00  0.00    +0.000 HD
ATOM     26  H   UNL     1     -12.399  -3.110  10.189  0.00  0.00    +0.000 HD
ATOM     27  H   UNL     1     -13.922  -2.346  12.002  0.00  0.00    +0.000 HD
ATOM     28  H   UNL     1     -13.176  -0.958  11.213  0.00  0.00    +0.000 HD
ATOM     29  H   UNL     1     -13.094  -0.710  13.690  0.00  0.00    +0.000 HD
ATOM     30  H   UNL     1     -10.618  -0.359  13.943  0.00  0.00    +0.000 HD
ATOM     31  H   UNL     1     -11.216   0.285  12.416  0.00  0.00    +0.000 HD
ATOM     32  H   UNL     1     -13.078  -3.173  14.167  0.00  0.00    +0.000 HD
ATOM     33  H   UNL     1     -11.877  -2.271  15.047  0.00  0.00    +0.000 HD
ATOM     34  H   UNL     1     -10.964  -4.669  11.527  0.00  0.00    +0.000 HD
ATOM     35  H   UNL     1     -12.581  -4.581  12.206  0.00  0.00    +0.000 HD
ENDBRANCH   6  11
BRANCH   7  36
ATOM     36  N   UNL     1     -11.098  -6.976  15.970  0.00  0.00    +0.000 N 
ATOM     37  H   UNL     1     -10.578  -7.725  16.426  0.00  0.00    +0.000 HD
ATOM     38  H   UNL     1     -10.967  -7.025  14.964  0.00  0.00    +0.000 HD
ENDBRANCH   7  36
BRANCH   1  39
ATOM     39  N   UNL     1     -10.600  -6.619  18.778  0.00  0.00    +0.000 N 
ATOM     40  H   UNL     1     -11.233  -6.529  19.561  0.00  0.00    +0.000 HD
BRANCH  39  41
ATOM     41  C   UNL     1      -9.267  -7.054  19.209  0.00  0.00    +0.000 C 
ATOM     42  H   UNL     1      -8.531  -6.937  18.403  0.00  0.00    +0.000 HD
ATOM     43  H   UNL     1      -8.944  -6.443  20.061  0.00  0.00    +0.000 HD
BRANCH  41  44
ATOM     44  C   UNL     1      -9.341  -8.527  19.612  0.00  0.00    +0.000 C 
ATOM     45  H   UNL     1      -8.691  -8.690  20.481  0.00  0.00    +0.000 HD
ATOM     46  H   UNL     1     -10.363  -8.777  19.920  0.00  0.00    +0.000 HD
BRANCH  44  47
ATOM     47  C   UNL     1      -8.907  -9.451  18.483  0.00  0.00    +0.000 C 
ATOM     48  H   UNL     1      -7.863  -9.241  18.223  0.00  0.00    +0.000 HD
ATOM     49  H   UNL     1      -8.993 -10.498  18.792  0.00  0.00    +0.000 HD
BRANCH  47  50
ATOM     50  O   UNL     1      -9.735  -9.212  17.348  0.00  0.00    +0.000 OA
BRANCH  50  51
ATOM     51  C   UNL     1      -9.946 -10.401  16.595  0.00  0.00    +0.000 C 
ATOM     52  H   UNL     1      -9.019 -10.980  16.599  0.00  0.00    +0.000 HD
ATOM     53  H   UNL     1     -10.200 -10.154  15.560  0.00  0.00    +0.000 HD
ATOM     54  H   UNL     1     -10.739 -11.005  17.045  0.00  0.00    +0.000 HD
ENDBRANCH  50  51
ENDBRANCH  47  50
ENDBRANCH  44  47
ENDBRANCH  41  44
ENDBRANCH  39  41
ENDBRANCH   1  39
TORSDOF 8
ENDMDL
