REMARK  Name = 
REMARK  3 active torsions:
REMARK  status: ('A' for Active; 'I' for Inactive)
REMARK    1  A    between atoms: C_8  and  C_9
REMARK    2  A    between atoms: N_10  and  N_11
REMARK    3  A    between atoms: C_16  and  C_17
REMARK                            x       y       z     vdW  Elec       q    Type
REMARK                         _______ _______ _______ _____ _____    ______ ____
ROOT
ATOM      1  N   UNL     1       1.639  -0.005  -1.763  0.00  0.00    +0.000 N 
ATOM      2  C   UNL     1       2.704   0.211  -2.677  0.00  0.00    +0.000 C 
ATOM      3  S   UNL     1       3.491  -0.846  -3.712  0.00  0.00    +0.000 SA
ATOM      4  N   UNL     1       3.155   1.534  -2.493  0.00  0.00    +0.000 N 
ATOM      5  N   UNL     1       2.417   2.231  -1.546  0.00  0.00    +0.000 N 
ATOM      6  C   UNL     1       1.415   1.259  -1.004  0.00  0.00    +0.000 C 
ATOM      7  H   UNL     1       3.996   1.823  -2.987  0.00  0.00    +0.000 HD
ATOM      8  H   UNL     1       3.053   2.543  -0.812  0.00  0.00    +0.000 HD
ATOM      9  H   UNL     1       1.690   1.068   0.039  0.00  0.00    +0.000 HD
ENDROOT
BRANCH   6  10
ATOM     10  C   UNL     1      -0.006   1.859  -1.136  0.00  0.00    +0.000 C 
ATOM     11  N   UNL     1      -1.085   0.814  -1.354  0.00  0.00    +0.000 NA
ATOM     12  N   UNL     1      -1.948   0.848  -0.420  0.00  0.00    +0.000 NA
ATOM     13  C   UNL     1      -1.595   1.821   0.452  0.00  0.00    +0.000 C 
ATOM     14  C   UNL     1      -0.488   2.465   0.125  0.00  0.00    +0.000 C 
ATOM     15  C   UNL     1       0.019   3.321   1.205  0.00  0.00    +0.000 C 
ATOM     16  C   UNL     1      -1.209   3.352   2.146  0.00  0.00    +0.000 C 
ATOM     17  C   UNL     1      -2.087   2.126   1.807  0.00  0.00    +0.000 C 
ATOM     18  H   UNL     1      -0.071   2.571  -1.967  0.00  0.00    +0.000 HD
ATOM     19  H   UNL     1       0.289   4.324   0.865  0.00  0.00    +0.000 HD
ATOM     20  H   UNL     1       0.878   2.859   1.702  0.00  0.00    +0.000 HD
ATOM     21  H   UNL     1      -1.783   4.270   1.959  0.00  0.00    +0.000 HD
ATOM     22  H   UNL     1      -0.916   3.367   3.201  0.00  0.00    +0.000 HD
ATOM     23  H   UNL     1      -3.150   2.379   1.830  0.00  0.00    +0.000 HD
ATOM     24  H   UNL     1      -1.893   1.296   2.494  0.00  0.00    +0.000 HD
ENDBRANCH   6  10
BRANCH   1  26
ATOM     25  C   UNL     1       0.498  -1.430  -0.398  0.00  0.00    +0.000 C 
ATOM     26  N   UNL     1       1.054  -1.283  -1.556  0.00  0.00    +0.000 NA
ATOM     27  H   UNL     1       0.522  -0.641   0.367  0.00  0.00    +0.000 HD
BRANCH  25  35
ATOM     28  F   UNL     1      -0.744  -1.574   2.058  0.00  0.00    +0.000 F 
ATOM     29  C   UNL     1      -0.795  -2.660   1.271  0.00  0.00    +0.000 A 
ATOM     30  C   UNL     1      -1.448  -3.793   1.736  0.00  0.00    +0.000 A 
ATOM     31  C   UNL     1      -1.506  -4.929   0.927  0.00  0.00    +0.000 A 
ATOM     32  C   UNL     1      -0.917  -4.914  -0.342  0.00  0.00    +0.000 A 
ATOM     33 BR   UNL     1      -1.004  -6.461  -1.424  0.00  0.00    +0.000 Br
ATOM     34  C   UNL     1      -0.260  -3.778  -0.812  0.00  0.00    +0.000 A 
ATOM     35  C   UNL     1      -0.197  -2.653   0.009  0.00  0.00    +0.000 A 
ATOM     36  H   UNL     1      -1.903  -3.787   2.721  0.00  0.00    +0.000 HD
ATOM     37  H   UNL     1      -2.010  -5.819   1.292  0.00  0.00    +0.000 HD
ATOM     38  H   UNL     1       0.196  -3.767  -1.800  0.00  0.00    +0.000 HD
ENDBRANCH  25  35
ENDBRANCH   1  26
TORSDOF 3
