REMARK  Name = 
REMARK  7 active torsions:
REMARK  status: ('A' for Active; 'I' for Inactive)
REMARK    1  A    between atoms: C_1  and  S_2
REMARK    2  A    between atoms: S_2  and  C_3
REMARK    3  A    between atoms: C_6  and  C_7
REMARK    4  A    between atoms: C_8  and  C_9
REMARK    5  A    between atoms: N_11  and  C_12
REMARK    6  A    between atoms: C_17  and  C_18
REMARK    7  A    between atoms: C_19  and  C_20
REMARK                            x       y       z     vdW  Elec       q    Type
REMARK                         _______ _______ _______ _____ _____    ______ ____
ROOT
ATOM      1  C   UNL     1      -1.627   0.814  -0.159  0.00  0.00    +0.000 C 
ATOM      2  C   UNL     1      -0.760   2.034   0.184  0.00  0.00    +0.000 C 
ATOM      3  C   UNL     1      -1.251   3.290  -0.034  0.00  0.00    +0.000 C 
ATOM      4  N   UNL     1      -2.497   3.470  -0.627  0.00  0.00    +0.000 N 
ATOM      5  C   UNL     1      -3.303   2.470  -0.994  0.00  0.00    +0.000 A 
ATOM      6  N   UNL     1      -4.506   2.483  -1.511  0.00  0.00    +0.000 NA
ATOM      7  C   UNL     1      -4.822   1.151  -1.568  0.00  0.00    +0.000 A 
ATOM      8  N   UNL     1      -3.890   0.312  -1.093  0.00  0.00    +0.000 NA
ATOM      9  N   UNL     1      -2.902   1.183  -0.794  0.00  0.00    +0.000 N 
ATOM     10  H   UNL     1      -1.937   0.394   0.810  0.00  0.00    +0.000 HD
ATOM     11  H   UNL     1      -2.825   4.425  -0.743  0.00  0.00    +0.000 HD
ATOM     12  H   UNL     1      -5.764   0.782  -1.954  0.00  0.00    +0.000 HD
ENDROOT
BRANCH   1  16
ATOM     13  C   UNL     1       0.224  -2.482  -2.330  0.00  0.00    +0.000 A 
ATOM     14  C   UNL     1      -0.750  -2.712  -1.360  0.00  0.00    +0.000 A 
ATOM     15  C   UNL     1      -1.342  -1.640  -0.690  0.00  0.00    +0.000 A 
ATOM     16  C   UNL     1      -0.964  -0.310  -0.962  0.00  0.00    +0.000 A 
ATOM     17  C   UNL     1       0.000  -0.085  -1.954  0.00  0.00    +0.000 A 
ATOM     18  C   UNL     1       0.597  -1.165  -2.618  0.00  0.00    +0.000 A 
ATOM     19  H   UNL     1      -1.052  -3.724  -1.103  0.00  0.00    +0.000 HD
ATOM     20  H   UNL     1      -2.114  -1.853   0.049  0.00  0.00    +0.000 HD
ATOM     21  H   UNL     1       0.317   0.924  -2.215  0.00  0.00    +0.000 HD
ATOM     22  H   UNL     1       1.364  -0.967  -3.366  0.00  0.00    +0.000 HD
BRANCH  13  23
ATOM     23  S   UNL     1       1.054  -3.833  -3.146  0.00  0.00    +0.000 S 
BRANCH  23  24
ATOM     24  C   UNL     1      -0.363  -4.693  -3.883  0.00  0.00    +0.000 C 
ATOM     25  H   UNL     1      -0.006  -5.589  -4.399  0.00  0.00    +0.000 HD
ATOM     26  H   UNL     1      -0.860  -4.048  -4.612  0.00  0.00    +0.000 HD
ATOM     27  H   UNL     1      -1.083  -5.006  -3.123  0.00  0.00    +0.000 HD
ENDBRANCH  23  24
ENDBRANCH  13  23
ENDBRANCH   1  16
BRANCH   2  28
ATOM     28  C   UNL     1       0.609   1.831   0.793  0.00  0.00    +0.000 C 
ATOM     29  O   UNL     1       1.444   2.728   0.720  0.00  0.00    +0.000 OA
ATOM     30  N   UNL     1       0.872   0.590   1.344  0.00  0.00    +0.000 N 
ATOM     31  H   UNL     1       0.260  -0.182   1.138  0.00  0.00    +0.000 HD
BRANCH  30  32
ATOM     32  C   UNL     1       2.008   0.234   2.124  0.00  0.00    +0.000 A 
ATOM     33  C   UNL     1       2.821   1.205   2.724  0.00  0.00    +0.000 A 
ATOM     34  C   UNL     1       3.881   0.845   3.560  0.00  0.00    +0.000 A 
ATOM     35  C   UNL     1       4.141  -0.495   3.817  0.00  0.00    +0.000 A 
ATOM     36  C   UNL     1       3.357  -1.476   3.214  0.00  0.00    +0.000 A 
ATOM     37  C   UNL     1       2.294  -1.129   2.358  0.00  0.00    +0.000 A 
ATOM     38  H   UNL     1       2.642   2.266   2.582  0.00  0.00    +0.000 HD
ATOM     39  H   UNL     1       4.494   1.617   4.016  0.00  0.00    +0.000 HD
ATOM     40  H   UNL     1       4.957  -0.776   4.476  0.00  0.00    +0.000 HD
ATOM     41  H   UNL     1       3.589  -2.521   3.409  0.00  0.00    +0.000 HD
BRANCH  37  42
ATOM     42  C   UNL     1       1.555  -2.246   1.670  0.00  0.00    +0.000 C 
ATOM     43  H   UNL     1       1.931  -3.229   1.979  0.00  0.00    +0.000 HD
ATOM     44  H   UNL     1       1.698  -2.173   0.588  0.00  0.00    +0.000 HD
ATOM     45  H   UNL     1       0.489  -2.218   1.912  0.00  0.00    +0.000 HD
ENDBRANCH  37  42
ENDBRANCH  30  32
ENDBRANCH   2  28
BRANCH   3  46
ATOM     46  C   UNL     1      -0.601   4.605   0.364  0.00  0.00    +0.000 C 
ATOM     47  H   UNL     1       0.185   4.524   1.112  0.00  0.00    +0.000 HD
ATOM     48  H   UNL     1      -1.354   5.263   0.816  0.00  0.00    +0.000 HD
ATOM     49  H   UNL     1      -0.207   5.109  -0.522  0.00  0.00    +0.000 HD
ENDBRANCH   3  46
TORSDOF 7
