REMARK  Name = 
REMARK  8 active torsions:
REMARK  status: ('A' for Active; 'I' for Inactive)
REMARK    1  A    between atoms: C_1  and  N_2
REMARK    2  A    between atoms: N_2  and  C_3
REMARK    3  A    between atoms: N_2  and  C_4
REMARK    4  A    between atoms: C_4  and  C_5
REMARK    5  A    between atoms: C_4  and  C_20
REMARK    6  A    between atoms: C_5  and  N_6
REMARK    7  A    between atoms: N_9  and  C_10
REMARK    8  A    between atoms: C_12  and  C_13
REMARK                            x       y       z     vdW  Elec       q    Type
REMARK                         _______ _______ _______ _____ _____    ______ ____
ROOT
ATOM      1  C   UNL     1       0.968   0.074  -1.604  0.00  0.00    +0.000 C 
ATOM      2  H   UNL     1       0.583  -0.950  -1.527  0.00  0.00    +0.000 HD
ENDROOT
BRANCH   1   3
ATOM      3  C   UNL     1       2.537   0.038  -1.713  0.00  0.00    +0.000 C 
ATOM      4  C   UNL     1       3.210  -0.694  -0.533  0.00  0.00    +0.000 C 
ATOM      5  C   UNL     1       4.718  -0.826  -0.770  0.00  0.00    +0.000 C 
ATOM      6  C   UNL     1       5.366   0.545  -0.929  0.00  0.00    +0.000 C 
ATOM      7  C   UNL     1       4.712   1.339  -2.055  0.00  0.00    +0.000 C 
ATOM      8  C   UNL     1       3.191   1.425  -1.899  0.00  0.00    +0.000 C 
ATOM      9  H   UNL     1       2.798  -0.570  -2.586  0.00  0.00    +0.000 HD
ATOM     10  H   UNL     1       2.775  -1.692  -0.414  0.00  0.00    +0.000 HD
ATOM     11  H   UNL     1       3.052  -0.152   0.406  0.00  0.00    +0.000 HD
ATOM     12  H   UNL     1       4.900  -1.423  -1.673  0.00  0.00    +0.000 HD
ATOM     13  H   UNL     1       5.183  -1.362   0.065  0.00  0.00    +0.000 HD
ATOM     14  H   UNL     1       6.437   0.430  -1.131  0.00  0.00    +0.000 HD
ATOM     15  H   UNL     1       5.277   1.102   0.012  0.00  0.00    +0.000 HD
ATOM     16  H   UNL     1       4.953   0.870  -3.017  0.00  0.00    +0.000 HD
ATOM     17  H   UNL     1       5.136   2.350  -2.082  0.00  0.00    +0.000 HD
ATOM     18  H   UNL     1       2.789   1.928  -2.784  0.00  0.00    +0.000 HD
ATOM     19  H   UNL     1       2.970   2.066  -1.038  0.00  0.00    +0.000 HD
ENDBRANCH   1   3
BRANCH   1  20
ATOM     20  C   UNL     1       0.493   0.913  -0.370  0.00  0.00    +0.000 C 
ATOM     21  H   UNL     1       0.992   0.545   0.531  0.00  0.00    +0.000 HD
ATOM     22  H   UNL     1       0.777   1.962  -0.489  0.00  0.00    +0.000 HD
BRANCH  20  23
ATOM     23  N   UNL     1      -0.949   0.904  -0.131  0.00  0.00    +0.000 N 
ATOM     24  C   UNL     1      -1.485   0.135   0.882  0.00  0.00    +0.000 C 
ATOM     25  O   UNL     1      -0.790  -0.554   1.613  0.00  0.00    +0.000 OA
ATOM     26  N   UNL     1      -2.858   0.249   0.917  0.00  0.00    +0.000 N 
ATOM     27  H   UNL     1      -1.415   1.802  -0.186  0.00  0.00    +0.000 HD
ATOM     28  H   UNL     1      -3.326   0.452   0.043  0.00  0.00    +0.000 HD
BRANCH  26  29
ATOM     29  C   UNL     1      -3.691  -0.282   1.928  0.00  0.00    +0.000 A 
ATOM     30  C   UNL     1      -3.225  -0.542   3.220  0.00  0.00    +0.000 A 
ATOM     31  C   UNL     1      -4.076  -1.085   4.192  0.00  0.00    +0.000 A 
ATOM     32  C   UNL     1      -5.416  -1.347   3.857  0.00  0.00    +0.000 A 
ATOM     33  C   UNL     1      -5.898  -1.065   2.576  0.00  0.00    +0.000 A 
ATOM     34  C   UNL     1      -5.037  -0.528   1.627  0.00  0.00    +0.000 A 
ATOM     35  F   UNL     1      -5.494  -0.266   0.391  0.00  0.00    +0.000 F 
ATOM     36  H   UNL     1      -2.202  -0.297   3.469  0.00  0.00    +0.000 HD
ATOM     37  H   UNL     1      -6.091  -1.773   4.600  0.00  0.00    +0.000 HD
ATOM     38  H   UNL     1      -6.934  -1.270   2.318  0.00  0.00    +0.000 HD
BRANCH  31  39
ATOM     39  C   UNL     1      -3.621  -1.385   5.579  0.00  0.00    +0.000 C 
ATOM     40  N   UNL     1      -2.321  -1.126   5.914  0.00  0.00    +0.000 N 
ATOM     41  O   UNL     1      -4.389  -1.857   6.404  0.00  0.00    +0.000 OA
ATOM     42  H   UNL     1      -1.600  -0.793   5.295  0.00  0.00    +0.000 HD
ATOM     43  H   UNL     1      -2.044  -1.363   6.859  0.00  0.00    +0.000 HD
ENDBRANCH  31  39
ENDBRANCH  26  29
ENDBRANCH  20  23
ENDBRANCH   1  20
BRANCH   1  44
ATOM     44  N   UNL     1       0.366   0.633  -2.950  0.00  0.00    +0.000 N 
ATOM     45  H   UNL     1       0.693   1.602  -3.050  0.00  0.00    +0.000 HD
BRANCH  44  46
ATOM     46  C   UNL     1      -1.144   0.683  -3.014  0.00  0.00    +0.000 C 
ATOM     47  H   UNL     1      -1.429   1.046  -4.007  0.00  0.00    +0.000 HD
ATOM     48  H   UNL     1      -1.517   1.416  -2.304  0.00  0.00    +0.000 HD
ATOM     49  H   UNL     1      -1.540  -0.320  -2.841  0.00  0.00    +0.000 HD
ENDBRANCH  44  46
BRANCH  44  50
ATOM     50  C   UNL     1       0.828  -0.126  -4.180  0.00  0.00    +0.000 C 
ATOM     51  H   UNL     1       0.530  -1.172  -4.070  0.00  0.00    +0.000 HD
ATOM     52  H   UNL     1       1.906  -0.016  -4.294  0.00  0.00    +0.000 HD
ATOM     53  H   UNL     1       0.353   0.325  -5.056  0.00  0.00    +0.000 HD
ENDBRANCH  44  50
ENDBRANCH   1  44
TORSDOF 8
