
 OpenBabel01112423173D

 45 48  0  0  1  0  0  0  0  0999 V2000
    0.8728    0.4826    1.1853 C   0  0  0  0  0  0  0  0  0  0  0  0
    2.6195    0.1316    0.9229 S   0  0  0  0  0  0  0  0  0  0  0  0
    3.2750    1.7402    0.8207 C   0  0  0  0  0  0  0  0  0  0  0  0
    4.5835    1.9252    0.6340 N   0  0  0  0  0  0  0  0  0  0  0  0
    4.6552    3.2590    0.5745 N   0  0  0  0  0  0  0  0  0  0  0  0
    3.4218    3.8460    0.6891 C   0  0  0  0  0  0  0  0  0  0  0  0
    3.2194    5.2098    0.6004 N   0  0  0  0  0  0  0  0  0  0  0  0
    1.9592    5.7447    0.8175 C   0  0  0  0  0  0  0  0  0  0  0  0
    0.8973    5.2457    1.1521 O   0  0  0  0  0  0  0  0  0  0  0  0
    2.0661    7.2035    0.5799 C   0  0  0  0  0  0  0  0  0  0  0  0
    0.9966    8.0409    0.7186 O   0  0  0  0  0  0  0  0  0  0  0  0
    3.3221    7.4864    0.2009 C   0  0  0  0  0  0  0  0  0  0  0  0
    3.8432    8.8124   -0.1821 C   0  0  0  0  0  0  0  0  0  0  0  0
    3.3298    9.9822    0.3943 C   0  0  0  0  0  0  0  0  0  0  0  0
    3.8127   11.2444    0.0347 C   0  0  0  0  0  0  0  0  0  0  0  0
    4.8362   11.3688   -0.9043 C   0  0  0  0  0  0  0  0  0  0  0  0
    5.3427   12.7170   -1.3188 C   0  0  0  0  0  0  0  0  0  0  0  0
    5.3750   10.2100   -1.4701 C   0  0  0  0  0  0  0  0  0  0  0  0
    4.8830    8.9478   -1.1130 C   0  0  0  0  0  0  0  0  0  0  0  0
    4.1546    6.2296    0.1581 C   0  0  1  0  0  0  0  0  0  0  0  0
    5.4213    6.2921    0.9981 C   0  0  0  0  0  0  0  0  0  0  0  0
    5.3716    6.4983    2.3872 C   0  0  0  0  0  0  0  0  0  0  0  0
    6.5475    6.5641    3.1380 C   0  0  0  0  0  0  0  0  0  0  0  0
    7.7820    6.4223    2.5099 C   0  0  0  0  0  0  0  0  0  0  0  0
    9.2286    6.5075    3.4358 Cl  0  0  0  0  0  0  0  0  0  0  0  0
    7.8525    6.2144    1.1348 C   0  0  0  0  0  0  0  0  0  0  0  0
    6.6782    6.1521    0.3813 C   0  0  0  0  0  0  0  0  0  0  0  0
    2.5386    2.8913    0.8792 N   0  0  0  0  0  0  0  0  0  0  0  0
    0.3258   -0.4643    1.2202 H   0  0  0  0  0  0  0  0  0  0  0  0
    0.4627    1.0829    0.3686 H   0  0  0  0  0  0  0  0  0  0  0  0
    0.7220    1.0010    2.1357 H   0  0  0  0  0  0  0  0  0  0  0  0
    5.5631    3.6930    0.4765 H   0  0  0  0  0  0  0  0  0  0  0  0
    0.2532    7.4650    0.9969 H   0  0  0  0  0  0  0  0  0  0  0  0
    2.5375    9.9364    1.1387 H   0  0  0  0  0  0  0  0  0  0  0  0
    3.3732   12.1267    0.4947 H   0  0  0  0  0  0  0  0  0  0  0  0
    4.8382   13.5196   -0.7708 H   0  0  0  0  0  0  0  0  0  0  0  0
    5.1607   12.8740   -2.3869 H   0  0  0  0  0  0  0  0  0  0  0  0
    6.4158   12.7964   -1.1187 H   0  0  0  0  0  0  0  0  0  0  0  0
    6.1765   10.2825   -2.2021 H   0  0  0  0  0  0  0  0  0  0  0  0
    5.3254    8.0840   -1.5990 H   0  0  0  0  0  0  0  0  0  0  0  0
    4.4011    5.9916   -0.8855 H   0  0  0  0  0  0  0  0  0  0  0  0
    4.4169    6.6218    2.8972 H   0  0  0  0  0  0  0  0  0  0  0  0
    6.4924    6.7324    4.2109 H   0  0  0  0  0  0  0  0  0  0  0  0
    8.8179    6.1103    0.6454 H   0  0  0  0  0  0  0  0  0  0  0  0
    6.7590    6.0047   -0.6948 H   0  0  0  0  0  0  0  0  0  0  0  0
  1  2  1  0  0  0  0
  1 29  1  0  0  0  0
  1 30  1  0  0  0  0
  1 31  1  0  0  0  0
  2  3  1  0  0  0  0
  3  4  2  0  0  0  0
  3 28  1  0  0  0  0
  4  5  1  0  0  0  0
  5  6  1  0  0  0  0
  5 32  1  0  0  0  0
  6  7  1  0  0  0  0
  6 28  2  0  0  0  0
  7  8  1  0  0  0  0
  7 20  1  0  0  0  0
  8  9  2  0  0  0  0
  8 10  1  0  0  0  0
 10 11  1  0  0  0  0
 10 12  2  0  0  0  0
 11 33  1  0  0  0  0
 12 13  1  0  0  0  0
 12 20  1  0  0  0  0
 13 14  1  0  0  0  0
 13 19  2  0  0  0  0
 14 15  2  0  0  0  0
 14 34  1  0  0  0  0
 15 16  1  0  0  0  0
 15 35  1  0  0  0  0
 16 17  1  0  0  0  0
 16 18  2  0  0  0  0
 17 36  1  0  0  0  0
 17 37  1  0  0  0  0
 17 38  1  0  0  0  0
 18 19  1  0  0  0  0
 18 39  1  0  0  0  0
 19 40  1  0  0  0  0
 20 21  1  0  0  0  0
 20 41  1  6  0  0  0
 21 22  1  0  0  0  0
 21 27  2  0  0  0  0
 22 23  2  0  0  0  0
 22 42  1  0  0  0  0
 23 24  1  0  0  0  0
 23 43  1  0  0  0  0
 24 25  1  0  0  0  0
 24 26  2  0  0  0  0
 26 27  1  0  0  0  0
 26 44  1  0  0  0  0
 27 45  1  0  0  0  0
M  END
$$$$
