REMARK  Name = 
REMARK  5 active torsions:
REMARK  status: ('A' for Active; 'I' for Inactive)
REMARK    1  A    between atoms: N_1  and  C_2
REMARK    2  A    between atoms: N_4  and  C_5
REMARK    3  A    between atoms: C_5  and  C_6
REMARK    4  A    between atoms: C_14  and  N_15
REMARK    5  A    between atoms: N_15  and  C_16
REMARK                            x       y       z     vdW  Elec       q    Type
REMARK                         _______ _______ _______ _____ _____    ______ ____
ROOT
ATOM      1  C   UNL     1       0.255   0.949  -0.137  0.00  0.00    +0.000 A 
ATOM      2  C   UNL     1       1.189   1.996  -0.243  0.00  0.00    +0.000 A 
ATOM      3  N   UNL     1       0.657   3.278  -0.096  0.00  0.00    +0.000 N 
ATOM      4  N   UNL     1       2.485   1.782  -0.463  0.00  0.00    +0.000 NA
ATOM      5  C   UNL     1       2.872   0.483  -0.522  0.00  0.00    +0.000 A 
ATOM      6  N   UNL     1       2.049  -0.560  -0.366  0.00  0.00    +0.000 N 
ATOM      7  C   UNL     1       0.741  -0.367  -0.168  0.00  0.00    +0.000 A 
ATOM      8  H   UNL     1       0.289   3.402   0.850  0.00  0.00    +0.000 HD
ATOM      9  H   UNL     1       3.924   0.275  -0.653  0.00  0.00    +0.000 HD
ATOM     10  H   UNL     1       2.410  -1.509  -0.377  0.00  0.00    +0.000 HD
ENDROOT
BRANCH   1  11
ATOM     11  N   UNL     1      -1.110   1.222   0.154  0.00  0.00    +0.000 N 
ATOM     12  H   UNL     1      -1.321   2.192  -0.109  0.00  0.00    +0.000 HD
ATOM     13  H   UNL     1      -1.744   0.584  -0.328  0.00  0.00    +0.000 HD
ENDBRANCH   1  11
BRANCH   3  14
ATOM     14  C   UNL     1       1.381   4.466  -0.517  0.00  0.00    +0.000 C 
ATOM     15  H   UNL     1       1.550   4.421  -1.600  0.00  0.00    +0.000 HD
ATOM     16  H   UNL     1       2.356   4.536  -0.022  0.00  0.00    +0.000 HD
BRANCH  14  17
ATOM     17  C   UNL     1       0.573   5.683  -0.199  0.00  0.00    +0.000 A 
ATOM     18  C   UNL     1      -0.182   6.559  -0.953  0.00  0.00    +0.000 A 
ATOM     19  C   UNL     1      -0.806   7.442  -0.037  0.00  0.00    +0.000 A 
ATOM     20  C   UNL     1      -0.399   7.048   1.215  0.00  0.00    +0.000 A 
ATOM     21  O   UNL     1       0.433   5.977   1.129  0.00  0.00    +0.000 OA
ATOM     22  H   UNL     1      -0.294   6.549  -2.029  0.00  0.00    +0.000 HD
ATOM     23  H   UNL     1      -1.481   8.258  -0.259  0.00  0.00    +0.000 HD
ATOM     24  H   UNL     1      -0.608   7.401   2.216  0.00  0.00    +0.000 HD
ENDBRANCH  14  17
ENDBRANCH   3  14
BRANCH   7  25
ATOM     25  N   UNL     1      -0.172  -1.426   0.012  0.00  0.00    +0.000 N 
ATOM     26  H   UNL     1      -0.761  -1.223   0.828  0.00  0.00    +0.000 HD
BRANCH  25  27
ATOM     27  C   UNL     1      -0.047  -2.800  -0.270  0.00  0.00    +0.000 A 
ATOM     28  C   UNL     1       0.774  -3.226  -1.327  0.00  0.00    +0.000 A 
ATOM     29  C   UNL     1       1.104  -4.567  -1.466  0.00  0.00    +0.000 A 
ATOM     30  C   UNL     1       0.550  -5.503  -0.608  0.00  0.00    +0.000 A 
ATOM     31  C   UNL     1      -0.537  -5.141   0.187  0.00  0.00    +0.000 A 
ATOM     32  C   UNL     1      -1.377  -6.147   0.684  0.00  0.00    +0.000 A 
ATOM     33  C   UNL     1      -2.542  -5.821   1.371  0.00  0.00    +0.000 A 
ATOM     34  C   UNL     1      -2.811  -4.494   1.677  0.00  0.00    +0.000 A 
ATOM     35  C   UNL     1      -1.954  -3.483   1.228  0.00  0.00    +0.000 A 
ATOM     36  C   UNL     1      -0.838  -3.776   0.403  0.00  0.00    +0.000 A 
ATOM     37  H   UNL     1       1.131  -2.528  -2.080  0.00  0.00    +0.000 HD
ATOM     38  H   UNL     1       1.753  -4.902  -2.271  0.00  0.00    +0.000 HD
ATOM     39  H   UNL     1       0.889  -6.535  -0.649  0.00  0.00    +0.000 HD
ATOM     40  H   UNL     1      -1.184  -7.191   0.448  0.00  0.00    +0.000 HD
ATOM     41  H   UNL     1      -3.246  -6.603   1.644  0.00  0.00    +0.000 HD
ATOM     42  H   UNL     1      -3.712  -4.243   2.231  0.00  0.00    +0.000 HD
ATOM     43  H   UNL     1      -2.237  -2.464   1.472  0.00  0.00    +0.000 HD
ENDBRANCH  25  27
ENDBRANCH   7  25
TORSDOF 5
