
 OpenBabel01112423103D

 52 55  0  0  1  0  0  0  0  0999 V2000
    3.2816    1.1244   -1.0331 C   0  0  0  0  0  0  0  0  0  0  0  0
    2.6862   -0.0068   -0.4112 O   0  0  0  0  0  0  0  0  0  0  0  0
    3.4517   -0.6988    0.4896 C   0  0  0  0  0  0  0  0  0  0  0  0
    4.5383   -0.1302    1.1641 C   0  0  0  0  0  0  0  0  0  0  0  0
    5.2275   -0.8537    2.1399 C   0  0  0  0  0  0  0  0  0  0  0  0
    4.8344   -2.1554    2.4815 C   0  0  0  0  0  0  0  0  0  0  0  0
    5.6058   -2.9066    3.5628 C   0  0  2  0  0  0  0  0  0  0  0  0
    6.2027   -4.1997    3.0259 C   0  0  0  0  0  0  0  0  0  0  0  0
    7.0450   -4.1186    1.8771 C   0  0  0  0  0  0  0  0  0  0  0  0
    7.7089   -4.0745    0.9263 N   0  0  0  0  0  0  0  0  0  0  0  0
    5.9660   -5.3897    3.6184 C   0  0  0  0  0  0  0  0  0  0  0  0
    6.4899   -6.6002    3.2309 N   0  0  0  0  0  0  0  0  0  0  0  0
    5.1357   -5.4957    4.7274 O   0  0  0  0  0  0  0  0  0  0  0  0
    4.6124   -4.3625    5.3259 C   0  0  0  0  0  0  0  0  0  0  0  0
    4.8005   -3.1325    4.8171 C   0  0  0  0  0  0  0  0  0  0  0  0
    4.2932   -1.9533    5.5812 C   0  0  0  0  0  0  0  0  0  0  0  0
    4.4828   -0.8086    5.1769 O   0  0  0  0  0  0  0  0  0  0  0  0
    3.5020   -2.2050    6.8468 C   0  0  0  0  0  0  0  0  0  0  0  0
    4.0595   -3.4190    7.6036 C   0  0  2  0  0  0  0  0  0  0  0  0
    5.4452   -3.1416    8.1982 C   0  0  0  0  0  0  0  0  0  0  0  0
    5.5960   -2.0885    9.1183 C   0  0  0  0  0  0  0  0  0  0  0  0
    6.8425   -1.7820    9.6713 C   0  0  0  0  0  0  0  0  0  0  0  0
    7.9632   -2.5298    9.3256 C   0  0  0  0  0  0  0  0  0  0  0  0
    7.8353   -3.5866    8.4323 C   0  0  0  0  0  0  0  0  0  0  0  0
    6.5889   -3.8932    7.8792 C   0  0  0  0  0  0  0  0  0  0  0  0
    3.9596   -4.6321    6.6576 C   0  0  0  0  0  0  0  0  0  0  0  0
    3.7443   -2.7204    1.8120 C   0  0  0  0  0  0  0  0  0  0  0  0
    3.0726   -2.0150    0.8035 C   0  0  0  0  0  0  0  0  0  0  0  0
    2.0390   -2.7150    0.2302 O   0  0  0  0  0  0  0  0  0  0  0  0
    1.9098   -2.5456   -1.1786 C   0  0  0  0  0  0  0  0  0  0  0  0
    2.5641    1.5168   -1.7608 H   0  0  0  0  0  0  0  0  0  0  0  0
    4.1890    0.8385   -1.5744 H   0  0  0  0  0  0  0  0  0  0  0  0
    3.4820    1.9249   -0.3148 H   0  0  0  0  0  0  0  0  0  0  0  0
    4.8563    0.8886    0.9835 H   0  0  0  0  0  0  0  0  0  0  0  0
    6.0489   -0.3687    2.6628 H   0  0  0  0  0  0  0  0  0  0  0  0
    6.4655   -2.2885    3.8642 H   0  0  0  0  0  0  0  0  0  0  0  0
    6.7491   -6.6754    2.2498 H   0  0  0  0  0  0  0  0  0  0  0  0
    5.9380   -7.3867    3.5632 H   0  0  0  0  0  0  0  0  0  0  0  0
    2.4555   -2.3726    6.5622 H   0  0  0  0  0  0  0  0  0  0  0  0
    3.5283   -1.2983    7.4601 H   0  0  0  0  0  0  0  0  0  0  0  0
    3.4020   -3.6259    8.4594 H   0  0  0  0  0  0  0  0  0  0  0  0
    4.7401   -1.4860    9.4160 H   0  0  0  0  0  0  0  0  0  0  0  0
    6.9368   -0.9569   10.3725 H   0  0  0  0  0  0  0  0  0  0  0  0
    8.9331   -2.2925    9.7540 H   0  0  0  0  0  0  0  0  0  0  0  0
    8.7067   -4.1785    8.1617 H   0  0  0  0  0  0  0  0  0  0  0  0
    6.5523   -4.7338    7.1921 H   0  0  0  0  0  0  0  0  0  0  0  0
    2.9048   -4.8762    6.4762 H   0  0  0  0  0  0  0  0  0  0  0  0
    4.4011   -5.5167    7.1325 H   0  0  0  0  0  0  0  0  0  0  0  0
    3.4094   -3.7274    2.0531 H   0  0  0  0  0  0  0  0  0  0  0  0
    1.3775   -3.4178   -1.5700 H   0  0  0  0  0  0  0  0  0  0  0  0
    2.8818   -2.4975   -1.6838 H   0  0  0  0  0  0  0  0  0  0  0  0
    1.2986   -1.6686   -1.4088 H   0  0  0  0  0  0  0  0  0  0  0  0
  1  2  1  0  0  0  0
  1 31  1  0  0  0  0
  1 32  1  0  0  0  0
  1 33  1  0  0  0  0
  2  3  1  0  0  0  0
  3  4  1  0  0  0  0
  3 28  2  0  0  0  0
  4  5  2  0  0  0  0
  4 34  1  0  0  0  0
  5  6  1  0  0  0  0
  5 35  1  0  0  0  0
  6  7  1  0  0  0  0
  6 27  2  0  0  0  0
  7  8  1  0  0  0  0
  7 15  1  0  0  0  0
  7 36  1  1  0  0  0
  8  9  1  0  0  0  0
  8 11  2  0  0  0  0
  9 10  3  0  0  0  0
 11 12  1  0  0  0  0
 11 13  1  0  0  0  0
 12 37  1  0  0  0  0
 12 38  1  0  0  0  0
 13 14  1  0  0  0  0
 14 15  2  0  0  0  0
 14 26  1  0  0  0  0
 15 16  1  0  0  0  0
 16 17  2  0  0  0  0
 16 18  1  0  0  0  0
 18 19  1  0  0  0  0
 18 39  1  0  0  0  0
 18 40  1  0  0  0  0
 19 26  1  0  0  0  0
 19 20  1  0  0  0  0
 19 41  1  1  0  0  0
 20 21  1  0  0  0  0
 20 25  2  0  0  0  0
 21 22  2  0  0  0  0
 21 42  1  0  0  0  0
 22 23  1  0  0  0  0
 22 43  1  0  0  0  0
 23 24  2  0  0  0  0
 23 44  1  0  0  0  0
 24 25  1  0  0  0  0
 24 45  1  0  0  0  0
 25 46  1  0  0  0  0
 26 47  1  0  0  0  0
 26 48  1  0  0  0  0
 27 28  1  0  0  0  0
 27 49  1  0  0  0  0
 28 29  1  0  0  0  0
 29 30  1  0  0  0  0
 30 50  1  0  0  0  0
 30 51  1  0  0  0  0
 30 52  1  0  0  0  0
M  END
$$$$
