MODEL 1
REMARK VINA RESULT:    -8.635      0.000      0.000
REMARK INTER + INTRA:         -10.821
REMARK INTER:                 -10.906
REMARK INTRA:                   0.086
REMARK UNBOUND:                 0.086
REMARK  Name = 
REMARK  5 active torsions:
REMARK  status: ('A' for Active; 'I' for Inactive)
REMARK    1  A    between atoms: N_1  and  N_2
REMARK    2  A    between atoms: N_2  and  C_3
REMARK    3  A    between atoms: C_6  and  S_7
REMARK    4  A    between atoms: S_7  and  N_10
REMARK    5  A    between atoms: C_13  and  C_14
REMARK                            x       y       z     vdW  Elec       q    Type
REMARK                         _______ _______ _______ _____ _____    ______ ____
ROOT
ATOM      1  S   UNL     1      -9.698  -7.508  17.586  0.00  0.00    +0.000 S 
ATOM      2  O   UNL     1      -9.356  -6.833  16.351  0.00  0.00    +0.000 OA
ATOM      3  O   UNL     1     -11.025  -7.397  18.155  0.00  0.00    +0.000 OA
ENDROOT
BRANCH   1   7
ATOM      4  C   UNL     1      -8.642 -11.844  16.550  0.00  0.00    +0.000 A 
ATOM      5  C   UNL     1      -9.246 -11.017  15.590  0.00  0.00    +0.000 A 
ATOM      6  C   UNL     1      -9.663  -9.723  15.924  0.00  0.00    +0.000 A 
ATOM      7  C   UNL     1      -9.503  -9.261  17.232  0.00  0.00    +0.000 A 
ATOM      8  C   UNL     1      -8.996 -10.107  18.220  0.00  0.00    +0.000 A 
ATOM      9  C   UNL     1      -8.578 -11.396  17.880  0.00  0.00    +0.000 A 
ATOM     10  H   UNL     1      -9.355 -11.337  14.555  0.00  0.00    +0.000 HD
ATOM     11  H   UNL     1     -10.062  -9.066  15.151  0.00  0.00    +0.000 HD
ATOM     12  H   UNL     1      -8.883  -9.753  19.245  0.00  0.00    +0.000 HD
ATOM     13  H   UNL     1      -8.187 -12.022  18.676  0.00  0.00    +0.000 HD
BRANCH   4  14
ATOM     14  N   UNL     1      -8.120 -13.104  16.164  0.00  0.00    +0.000 N 
ATOM     15  H   UNL     1      -7.840 -13.663  16.982  0.00  0.00    +0.000 HD
BRANCH  14  16
ATOM     16  N   UNL     1      -8.744 -13.828  15.025  0.00  0.00    +0.000 N 
ATOM     17  H   UNL     1      -8.082 -14.015  14.258  0.00  0.00    +0.000 HD
ATOM     18  H   UNL     1      -9.543 -13.280  14.668  0.00  0.00    +0.000 HD
ATOM     19  H   UNL     1      -9.161 -14.714  15.355  0.00  0.00    +0.000 HD
ENDBRANCH  14  16
ENDBRANCH   4  14
ENDBRANCH   1   7
BRANCH   1  20
ATOM     20  N   UNL     1      -8.578  -7.209  18.708  0.00  0.00    +0.000 NA
ATOM     21  C   UNL     1      -8.444  -6.014  19.174  0.00  0.00    +0.000 A 
ATOM     22  N   UNL     1      -7.552  -5.655  20.153  0.00  0.00    +0.000 N 
ATOM     23  C   UNL     1      -7.650  -4.371  20.656  0.00  0.00    +0.000 A 
ATOM     24  C   UNL     1      -8.564  -3.628  20.007  0.00  0.00    +0.000 A 
ATOM     25  S   UNL     1      -9.358  -4.539  18.744  0.00  0.00    +0.000 S 
ATOM     26  H   UNL     1      -6.964  -6.331  20.612  0.00  0.00    +0.000 HD
ATOM     27  H   UNL     1      -8.822  -2.601  20.234  0.00  0.00    +0.000 HD
BRANCH  23  28
ATOM     28  C   UNL     1      -6.806  -3.980  21.783  0.00  0.00    +0.000 C 
ATOM     29  C   UNL     1      -7.472  -3.668  23.102  0.00  0.00    +0.000 C 
ATOM     30  C   UNL     1      -6.841  -2.566  22.305  0.00  0.00    +0.000 C 
ATOM     31  H   UNL     1      -5.845  -4.486  21.817  0.00  0.00    +0.000 HD
ATOM     32  H   UNL     1      -6.975  -3.991  24.009  0.00  0.00    +0.000 HD
ATOM     33  H   UNL     1      -8.555  -3.668  23.169  0.00  0.00    +0.000 HD
ATOM     34  H   UNL     1      -5.917  -2.139  22.682  0.00  0.00    +0.000 HD
ATOM     35  H   UNL     1      -7.497  -1.839  21.839  0.00  0.00    +0.000 HD
ENDBRANCH  23  28
ENDBRANCH   1  20
TORSDOF 5
ENDMDL
MODEL 2
REMARK VINA RESULT:    -8.612      1.152      1.669
REMARK INTER + INTRA:         -10.792
REMARK INTER:                 -11.082
REMARK INTRA:                   0.290
REMARK UNBOUND:                 0.086
REMARK  Name = 
REMARK  5 active torsions:
REMARK  status: ('A' for Active; 'I' for Inactive)
REMARK    1  A    between atoms: N_1  and  N_2
REMARK    2  A    between atoms: N_2  and  C_3
REMARK    3  A    between atoms: C_6  and  S_7
REMARK    4  A    between atoms: S_7  and  N_10
REMARK    5  A    between atoms: C_13  and  C_14
REMARK                            x       y       z     vdW  Elec       q    Type
REMARK                         _______ _______ _______ _____ _____    ______ ____
ROOT
ATOM      1  S   UNL     1      -9.340  -8.444  16.809  0.00  0.00    +0.000 S 
ATOM      2  O   UNL     1      -8.838  -7.752  15.640  0.00  0.00    +0.000 OA
ATOM      3  O   UNL     1     -10.760  -8.496  17.094  0.00  0.00    +0.000 OA
ENDROOT
BRANCH   1   7
ATOM      4  C   UNL     1      -8.700 -12.935  16.176  0.00  0.00    +0.000 A 
ATOM      5  C   UNL     1      -8.739 -12.405  17.475  0.00  0.00    +0.000 A 
ATOM      6  C   UNL     1      -8.835 -11.024  17.679  0.00  0.00    +0.000 A 
ATOM      7  C   UNL     1      -8.862 -10.162  16.580  0.00  0.00    +0.000 A 
ATOM      8  C   UNL     1      -8.723 -10.669  15.286  0.00  0.00    +0.000 A 
ATOM      9  C   UNL     1      -8.631 -12.048  15.089  0.00  0.00    +0.000 A 
ATOM     10  H   UNL     1      -8.751 -13.052  18.350  0.00  0.00    +0.000 HD
ATOM     11  H   UNL     1      -8.939 -10.632  18.691  0.00  0.00    +0.000 HD
ATOM     12  H   UNL     1      -8.731  -9.997  14.428  0.00  0.00    +0.000 HD
ATOM     13  H   UNL     1      -8.528 -12.402  14.067  0.00  0.00    +0.000 HD
BRANCH   4  14
ATOM     14  N   UNL     1      -8.722 -14.341  15.989  0.00  0.00    +0.000 N 
ATOM     15  H   UNL     1      -9.001 -14.831  16.850  0.00  0.00    +0.000 HD
BRANCH  14  16
ATOM     16  N   UNL     1      -9.218 -14.891  14.700  0.00  0.00    +0.000 N 
ATOM     17  H   UNL     1      -8.562 -14.739  13.921  0.00  0.00    +0.000 HD
ATOM     18  H   UNL     1     -10.131 -14.465  14.474  0.00  0.00    +0.000 HD
ATOM     19  H   UNL     1      -9.417 -15.901  14.800  0.00  0.00    +0.000 HD
ENDBRANCH  14  16
ENDBRANCH   4  14
ENDBRANCH   1   7
BRANCH   1  20
ATOM     20  N   UNL     1      -8.520  -7.982  18.119  0.00  0.00    +0.000 NA
ATOM     21  C   UNL     1      -8.589  -6.757  18.517  0.00  0.00    +0.000 A 
ATOM     22  N   UNL     1      -7.965  -6.265  19.635  0.00  0.00    +0.000 N 
ATOM     23  C   UNL     1      -8.274  -4.971  20.013  0.00  0.00    +0.000 A 
ATOM     24  C   UNL     1      -9.082  -4.352  19.133  0.00  0.00    +0.000 A 
ATOM     25  S   UNL     1      -9.504  -5.400  17.798  0.00  0.00    +0.000 S 
ATOM     26  H   UNL     1      -7.437  -6.857  20.256  0.00  0.00    +0.000 HD
ATOM     27  H   UNL     1      -9.465  -3.344  19.226  0.00  0.00    +0.000 HD
BRANCH  23  28
ATOM     28  C   UNL     1      -7.731  -4.444  21.263  0.00  0.00    +0.000 C 
ATOM     29  C   UNL     1      -7.417  -2.968  21.341  0.00  0.00    +0.000 C 
ATOM     30  C   UNL     1      -6.302  -3.969  21.331  0.00  0.00    +0.000 C 
ATOM     31  H   UNL     1      -8.128  -4.916  22.157  0.00  0.00    +0.000 HD
ATOM     32  H   UNL     1      -7.632  -2.453  22.269  0.00  0.00    +0.000 HD
ATOM     33  H   UNL     1      -7.530  -2.349  20.456  0.00  0.00    +0.000 HD
ATOM     34  H   UNL     1      -5.757  -4.124  22.257  0.00  0.00    +0.000 HD
ATOM     35  H   UNL     1      -5.677  -4.022  20.446  0.00  0.00    +0.000 HD
ENDBRANCH  23  28
ENDBRANCH   1  20
TORSDOF 5
ENDMDL
MODEL 3
REMARK VINA RESULT:    -8.325      2.908      3.927
REMARK INTER + INTRA:         -10.429
REMARK INTER:                 -10.581
REMARK INTRA:                   0.152
REMARK UNBOUND:                 0.086
REMARK  Name = 
REMARK  5 active torsions:
REMARK  status: ('A' for Active; 'I' for Inactive)
REMARK    1  A    between atoms: N_1  and  N_2
REMARK    2  A    between atoms: N_2  and  C_3
REMARK    3  A    between atoms: C_6  and  S_7
REMARK    4  A    between atoms: S_7  and  N_10
REMARK    5  A    between atoms: C_13  and  C_14
REMARK                            x       y       z     vdW  Elec       q    Type
REMARK                         _______ _______ _______ _____ _____    ______ ____
ROOT
ATOM      1  S   UNL     1      -9.287  -8.562  18.096  0.00  0.00    +0.000 S 
ATOM      2  O   UNL     1      -9.594  -8.898  19.471  0.00  0.00    +0.000 OA
ATOM      3  O   UNL     1      -8.028  -7.937  17.743  0.00  0.00    +0.000 OA
ENDROOT
BRANCH   1   7
ATOM      4  C   UNL     1      -8.687 -12.446  15.743  0.00  0.00    +0.000 A 
ATOM      5  C   UNL     1      -9.232 -11.317  15.112  0.00  0.00    +0.000 A 
ATOM      6  C   UNL     1      -9.511 -10.156  15.843  0.00  0.00    +0.000 A 
ATOM      7  C   UNL     1      -9.274 -10.132  17.220  0.00  0.00    +0.000 A 
ATOM      8  C   UNL     1      -8.828 -11.280  17.876  0.00  0.00    +0.000 A 
ATOM      9  C   UNL     1      -8.547 -12.434  17.141  0.00  0.00    +0.000 A 
ATOM     10  H   UNL     1      -9.398 -11.294  14.036  0.00  0.00    +0.000 HD
ATOM     11  H   UNL     1      -9.863  -9.263  15.327  0.00  0.00    +0.000 HD
ATOM     12  H   UNL     1      -8.655 -11.268  18.952  0.00  0.00    +0.000 HD
ATOM     13  H   UNL     1      -8.199 -13.305  17.688  0.00  0.00    +0.000 HD
BRANCH   4  14
ATOM     14  N   UNL     1      -8.301 -13.568  14.966  0.00  0.00    +0.000 N 
ATOM     15  H   UNL     1      -7.287 -13.736  15.024  0.00  0.00    +0.000 HD
BRANCH  14  16
ATOM     16  N   UNL     1      -9.188 -14.761  14.927  0.00  0.00    +0.000 N 
ATOM     17  H   UNL     1     -10.087 -14.607  15.406  0.00  0.00    +0.000 HD
ATOM     18  H   UNL     1      -8.700 -15.564  15.355  0.00  0.00    +0.000 HD
ATOM     19  H   UNL     1      -9.354 -15.046  13.948  0.00  0.00    +0.000 HD
ENDBRANCH  14  16
ENDBRANCH   4  14
ENDBRANCH   1   7
BRANCH   1  20
ATOM     20  N   UNL     1     -10.519  -7.756  17.435  0.00  0.00    +0.000 NA
ATOM     21  C   UNL     1     -10.634  -6.488  17.638  0.00  0.00    +0.000 A 
ATOM     22  N   UNL     1     -11.618  -5.699  17.098  0.00  0.00    +0.000 N 
ATOM     23  C   UNL     1     -11.503  -4.333  17.279  0.00  0.00    +0.000 A 
ATOM     24  C   UNL     1     -10.469  -4.000  18.072  0.00  0.00    +0.000 A 
ATOM     25  S   UNL     1      -9.581  -5.411  18.601  0.00  0.00    +0.000 S 
ATOM     26  H   UNL     1     -12.302  -6.065  16.455  0.00  0.00    +0.000 HD
ATOM     27  H   UNL     1     -10.178  -2.993  18.343  0.00  0.00    +0.000 HD
BRANCH  23  28
ATOM     28  C   UNL     1     -12.457  -3.443  16.621  0.00  0.00    +0.000 C 
ATOM     29  C   UNL     1     -12.009  -2.704  15.382  0.00  0.00    +0.000 C 
ATOM     30  C   UNL     1     -12.252  -1.950  16.654  0.00  0.00    +0.000 C 
ATOM     31  H   UNL     1     -13.486  -3.792  16.648  0.00  0.00    +0.000 HD
ATOM     32  H   UNL     1     -12.724  -2.589  14.575  0.00  0.00    +0.000 HD
ATOM     33  H   UNL     1     -10.979  -2.790  15.050  0.00  0.00    +0.000 HD
ATOM     34  H   UNL     1     -13.132  -1.316  16.702  0.00  0.00    +0.000 HD
ATOM     35  H   UNL     1     -11.392  -1.538  17.170  0.00  0.00    +0.000 HD
ENDBRANCH  23  28
ENDBRANCH   1  20
TORSDOF 5
ENDMDL
MODEL 4
REMARK VINA RESULT:    -8.321      4.076      4.736
REMARK INTER + INTRA:         -10.424
REMARK INTER:                 -10.817
REMARK INTRA:                   0.393
REMARK UNBOUND:                 0.086
REMARK  Name = 
REMARK  5 active torsions:
REMARK  status: ('A' for Active; 'I' for Inactive)
REMARK    1  A    between atoms: N_1  and  N_2
REMARK    2  A    between atoms: N_2  and  C_3
REMARK    3  A    between atoms: C_6  and  S_7
REMARK    4  A    between atoms: S_7  and  N_10
REMARK    5  A    between atoms: C_13  and  C_14
REMARK                            x       y       z     vdW  Elec       q    Type
REMARK                         _______ _______ _______ _____ _____    ______ ____
ROOT
ATOM      1  S   UNL     1      -9.666  -8.533  16.970  0.00  0.00    +0.000 S 
ATOM      2  O   UNL     1     -11.104  -8.673  16.878  0.00  0.00    +0.000 OA
ATOM      3  O   UNL     1      -9.032  -8.136  18.212  0.00  0.00    +0.000 OA
ENDROOT
BRANCH   1   7
ATOM      4  C   UNL     1      -8.559 -12.888  16.079  0.00  0.00    +0.000 A 
ATOM      5  C   UNL     1      -8.592 -12.426  17.404  0.00  0.00    +0.000 A 
ATOM      6  C   UNL     1      -8.832 -11.076  17.683  0.00  0.00    +0.000 A 
ATOM      7  C   UNL     1      -9.010 -10.173  16.632  0.00  0.00    +0.000 A 
ATOM      8  C   UNL     1      -8.880 -10.600  15.309  0.00  0.00    +0.000 A 
ATOM      9  C   UNL     1      -8.644 -11.949  15.037  0.00  0.00    +0.000 A 
ATOM     10  H   UNL     1      -8.489 -13.110  18.245  0.00  0.00    +0.000 HD
ATOM     11  H   UNL     1      -8.929 -10.745  18.717  0.00  0.00    +0.000 HD
ATOM     12  H   UNL     1      -9.005  -9.895  14.488  0.00  0.00    +0.000 HD
ATOM     13  H   UNL     1      -8.552 -12.242  13.995  0.00  0.00    +0.000 HD
BRANCH   4  14
ATOM     14  N   UNL     1      -8.433 -14.276  15.821  0.00  0.00    +0.000 N 
ATOM     15  H   UNL     1      -8.350 -14.816  16.694  0.00  0.00    +0.000 HD
BRANCH  14  16
ATOM     16  N   UNL     1      -9.224 -14.882  14.718  0.00  0.00    +0.000 N 
ATOM     17  H   UNL     1      -9.849 -15.635  15.040  0.00  0.00    +0.000 HD
ATOM     18  H   UNL     1      -8.582 -15.248  13.997  0.00  0.00    +0.000 HD
ATOM     19  H   UNL     1      -9.773 -14.152  14.235  0.00  0.00    +0.000 HD
ENDBRANCH  14  16
ENDBRANCH   4  14
ENDBRANCH   1   7
BRANCH   1  20
ATOM     20  N   UNL     1      -9.119  -7.633  15.748  0.00  0.00    +0.000 NA
ATOM     21  C   UNL     1      -9.673  -6.497  15.493  0.00  0.00    +0.000 A 
ATOM     22  N   UNL     1      -9.267  -5.637  14.505  0.00  0.00    +0.000 N 
ATOM     23  C   UNL     1      -9.861  -4.388  14.471  0.00  0.00    +0.000 A 
ATOM     24  C   UNL     1     -10.846  -4.257  15.378  0.00  0.00    +0.000 A 
ATOM     25  S   UNL     1     -11.043  -5.710  16.331  0.00  0.00    +0.000 S 
ATOM     26  H   UNL     1      -8.461  -5.825  13.931  0.00  0.00    +0.000 HD
ATOM     27  H   UNL     1     -11.440  -3.367  15.543  0.00  0.00    +0.000 HD
BRANCH  23  28
ATOM     28  C   UNL     1      -9.378  -3.394  13.516  0.00  0.00    +0.000 C 
ATOM     29  C   UNL     1      -9.192  -1.973  13.994  0.00  0.00    +0.000 C 
ATOM     30  C   UNL     1     -10.292  -2.299  13.029  0.00  0.00    +0.000 C 
ATOM     31  H   UNL     1      -8.656  -3.777  12.799  0.00  0.00    +0.000 HD
ATOM     32  H   UNL     1      -8.335  -1.422  13.623  0.00  0.00    +0.000 HD
ATOM     33  H   UNL     1      -9.486  -1.704  15.003  0.00  0.00    +0.000 HD
ATOM     34  H   UNL     1     -10.180  -1.958  12.005  0.00  0.00    +0.000 HD
ATOM     35  H   UNL     1     -11.313  -2.252  13.393  0.00  0.00    +0.000 HD
ENDBRANCH  23  28
ENDBRANCH   1  20
TORSDOF 5
ENDMDL
MODEL 5
REMARK VINA RESULT:    -8.289      2.119      7.950
REMARK INTER + INTRA:         -10.383
REMARK INTER:                 -10.619
REMARK INTRA:                   0.236
REMARK UNBOUND:                 0.086
REMARK  Name = 
REMARK  5 active torsions:
REMARK  status: ('A' for Active; 'I' for Inactive)
REMARK    1  A    between atoms: N_1  and  N_2
REMARK    2  A    between atoms: N_2  and  C_3
REMARK    3  A    between atoms: C_6  and  S_7
REMARK    4  A    between atoms: S_7  and  N_10
REMARK    5  A    between atoms: C_13  and  C_14
REMARK                            x       y       z     vdW  Elec       q    Type
REMARK                         _______ _______ _______ _____ _____    ______ ____
ROOT
ATOM      1  S   UNL     1      -8.775  -7.219  18.533  0.00  0.00    +0.000 S 
ATOM      2  O   UNL     1     -10.140  -6.862  18.860  0.00  0.00    +0.000 OA
ATOM      3  O   UNL     1      -8.236  -6.982  17.209  0.00  0.00    +0.000 OA
ENDROOT
BRANCH   1   7
ATOM      4  C   UNL     1      -6.179  -4.259  20.876  0.00  0.00    +0.000 A 
ATOM      5  C   UNL     1      -5.580  -5.289  20.134  0.00  0.00    +0.000 A 
ATOM      6  C   UNL     1      -6.362  -6.257  19.495  0.00  0.00    +0.000 A 
ATOM      7  C   UNL     1      -7.753  -6.216  19.622  0.00  0.00    +0.000 A 
ATOM      8  C   UNL     1      -8.357  -5.257  20.438  0.00  0.00    +0.000 A 
ATOM      9  C   UNL     1      -7.570  -4.291  21.070  0.00  0.00    +0.000 A 
ATOM     10  H   UNL     1      -4.501  -5.329  19.991  0.00  0.00    +0.000 HD
ATOM     11  H   UNL     1      -5.888  -7.006  18.862  0.00  0.00    +0.000 HD
ATOM     12  H   UNL     1      -9.441  -5.231  20.549  0.00  0.00    +0.000 HD
ATOM     13  H   UNL     1      -8.078  -3.561  21.693  0.00  0.00    +0.000 HD
BRANCH   4  14
ATOM     14  N   UNL     1      -5.377  -3.222  21.416  0.00  0.00    +0.000 N 
ATOM     15  H   UNL     1      -4.610  -2.968  20.778  0.00  0.00    +0.000 HD
BRANCH  14  16
ATOM     16  N   UNL     1      -6.030  -2.119  22.170  0.00  0.00    +0.000 N 
ATOM     17  H   UNL     1      -5.915  -1.201  21.716  0.00  0.00    +0.000 HD
ATOM     18  H   UNL     1      -5.646  -2.084  23.127  0.00  0.00    +0.000 HD
ATOM     19  H   UNL     1      -7.035  -2.326  22.298  0.00  0.00    +0.000 HD
ENDBRANCH  14  16
ENDBRANCH   4  14
ENDBRANCH   1   7
BRANCH   1  20
ATOM     20  N   UNL     1      -8.473  -8.733  19.000  0.00  0.00    +0.000 NA
ATOM     21  C   UNL     1      -8.779  -9.714  18.221  0.00  0.00    +0.000 A 
ATOM     22  N   UNL     1      -8.535 -11.035  18.500  0.00  0.00    +0.000 N 
ATOM     23  C   UNL     1      -8.773 -11.948  17.489  0.00  0.00    +0.000 A 
ATOM     24  C   UNL     1      -9.324 -11.384  16.399  0.00  0.00    +0.000 A 
ATOM     25  S   UNL     1      -9.538  -9.661  16.604  0.00  0.00    +0.000 S 
ATOM     26  H   UNL     1      -8.046 -11.324  19.332  0.00  0.00    +0.000 HD
ATOM     27  H   UNL     1      -9.585 -11.899  15.483  0.00  0.00    +0.000 HD
BRANCH  23  28
ATOM     28  C   UNL     1      -8.414 -13.350  17.694  0.00  0.00    +0.000 C 
ATOM     29  C   UNL     1      -9.522 -14.377  17.716  0.00  0.00    +0.000 C 
ATOM     30  C   UNL     1      -8.781 -14.050  18.978  0.00  0.00    +0.000 C 
ATOM     31  H   UNL     1      -7.473 -13.641  17.236  0.00  0.00    +0.000 HD
ATOM     32  H   UNL     1      -9.332 -15.336  17.247  0.00  0.00    +0.000 HD
ATOM     33  H   UNL     1     -10.555 -14.052  17.653  0.00  0.00    +0.000 HD
ATOM     34  H   UNL     1      -8.096 -14.796  19.366  0.00  0.00    +0.000 HD
ATOM     35  H   UNL     1      -9.315 -13.507  19.750  0.00  0.00    +0.000 HD
ENDBRANCH  23  28
ENDBRANCH   1  20
TORSDOF 5
ENDMDL
MODEL 6
REMARK VINA RESULT:    -8.080      3.951      5.358
REMARK INTER + INTRA:         -10.120
REMARK INTER:                 -10.166
REMARK INTRA:                   0.046
REMARK UNBOUND:                 0.086
REMARK  Name = 
REMARK  5 active torsions:
REMARK  status: ('A' for Active; 'I' for Inactive)
REMARK    1  A    between atoms: N_1  and  N_2
REMARK    2  A    between atoms: N_2  and  C_3
REMARK    3  A    between atoms: C_6  and  S_7
REMARK    4  A    between atoms: S_7  and  N_10
REMARK    5  A    between atoms: C_13  and  C_14
REMARK                            x       y       z     vdW  Elec       q    Type
REMARK                         _______ _______ _______ _____ _____    ______ ____
ROOT
ATOM      1  S   UNL     1     -10.099  -7.211  17.699  0.00  0.00    +0.000 S 
ATOM      2  O   UNL     1     -11.445  -7.399  18.200  0.00  0.00    +0.000 OA
ATOM      3  O   UNL     1      -9.123  -6.447  18.449  0.00  0.00    +0.000 OA
ENDROOT
BRANCH   1   7
ATOM      4  C   UNL     1      -8.837 -11.614  17.639  0.00  0.00    +0.000 A 
ATOM      5  C   UNL     1      -8.518 -10.804  18.740  0.00  0.00    +0.000 A 
ATOM      6  C   UNL     1      -8.811  -9.435  18.728  0.00  0.00    +0.000 A 
ATOM      7  C   UNL     1      -9.399  -8.864  17.597  0.00  0.00    +0.000 A 
ATOM      8  C   UNL     1      -9.630  -9.637  16.458  0.00  0.00    +0.000 A 
ATOM      9  C   UNL     1      -9.339 -11.003  16.478  0.00  0.00    +0.000 A 
ATOM     10  H   UNL     1      -8.089 -11.226  19.648  0.00  0.00    +0.000 HD
ATOM     11  H   UNL     1      -8.626  -8.834  19.618  0.00  0.00    +0.000 HD
ATOM     12  H   UNL     1     -10.076  -9.191  15.569  0.00  0.00    +0.000 HD
ATOM     13  H   UNL     1      -9.535 -11.570  15.573  0.00  0.00    +0.000 HD
BRANCH   4  14
ATOM     14  N   UNL     1      -8.642 -13.016  17.717  0.00  0.00    +0.000 N 
ATOM     15  H   UNL     1      -7.776 -13.303  17.239  0.00  0.00    +0.000 HD
BRANCH  14  16
ATOM     16  N   UNL     1      -8.994 -13.727  18.975  0.00  0.00    +0.000 N 
ATOM     17  H   UNL     1      -8.252 -14.366  19.294  0.00  0.00    +0.000 HD
ATOM     18  H   UNL     1      -9.871 -14.253  18.836  0.00  0.00    +0.000 HD
ATOM     19  H   UNL     1      -9.213 -13.042  19.718  0.00  0.00    +0.000 HD
ENDBRANCH  14  16
ENDBRANCH   4  14
ENDBRANCH   1   7
BRANCH   1  20
ATOM     20  N   UNL     1     -10.146  -6.711  16.166  0.00  0.00    +0.000 NA
ATOM     21  C   UNL     1     -10.687  -5.575  15.881  0.00  0.00    +0.000 A 
ATOM     22  N   UNL     1     -10.749  -5.037  14.620  0.00  0.00    +0.000 N 
ATOM     23  C   UNL     1     -11.212  -3.739  14.510  0.00  0.00    +0.000 A 
ATOM     24  C   UNL     1     -11.640  -3.239  15.684  0.00  0.00    +0.000 A 
ATOM     25  S   UNL     1     -11.446  -4.391  16.984  0.00  0.00    +0.000 S 
ATOM     26  H   UNL     1     -10.323  -5.487  13.826  0.00  0.00    +0.000 HD
ATOM     27  H   UNL     1     -12.031  -2.242  15.842  0.00  0.00    +0.000 HD
BRANCH  23  28
ATOM     28  C   UNL     1     -11.182  -3.078  13.207  0.00  0.00    +0.000 C 
ATOM     29  C   UNL     1     -12.474  -2.967  12.431  0.00  0.00    +0.000 C 
ATOM     30  C   UNL     1     -11.385  -3.877  11.945  0.00  0.00    +0.000 C 
ATOM     31  H   UNL     1     -10.491  -2.242  13.146  0.00  0.00    +0.000 HD
ATOM     32  H   UNL     1     -12.657  -2.052  11.882  0.00  0.00    +0.000 HD
ATOM     33  H   UNL     1     -13.373  -3.438  12.816  0.00  0.00    +0.000 HD
ATOM     34  H   UNL     1     -10.838  -3.575  11.057  0.00  0.00    +0.000 HD
ATOM     35  H   UNL     1     -11.554  -4.946  12.008  0.00  0.00    +0.000 HD
ENDBRANCH  23  28
ENDBRANCH   1  20
TORSDOF 5
ENDMDL
MODEL 7
REMARK VINA RESULT:    -8.032      1.821      7.940
REMARK INTER + INTRA:         -10.059
REMARK INTER:                 -10.283
REMARK INTRA:                   0.224
REMARK UNBOUND:                 0.086
REMARK  Name = 
REMARK  5 active torsions:
REMARK  status: ('A' for Active; 'I' for Inactive)
REMARK    1  A    between atoms: N_1  and  N_2
REMARK    2  A    between atoms: N_2  and  C_3
REMARK    3  A    between atoms: C_6  and  S_7
REMARK    4  A    between atoms: S_7  and  N_10
REMARK    5  A    between atoms: C_13  and  C_14
REMARK                            x       y       z     vdW  Elec       q    Type
REMARK                         _______ _______ _______ _____ _____    ______ ____
ROOT
ATOM      1  S   UNL     1      -9.424  -6.566  17.979  0.00  0.00    +0.000 S 
ATOM      2  O   UNL     1     -10.705  -6.466  18.647  0.00  0.00    +0.000 OA
ATOM      3  O   UNL     1      -9.261  -6.132  16.606  0.00  0.00    +0.000 OA
ENDROOT
BRANCH   1   7
ATOM      4  C   UNL     1      -6.771  -4.182  20.854  0.00  0.00    +0.000 A 
ATOM      5  C   UNL     1      -8.047  -3.706  20.513  0.00  0.00    +0.000 A 
ATOM      6  C   UNL     1      -8.827  -4.373  19.562  0.00  0.00    +0.000 A 
ATOM      7  C   UNL     1      -8.318  -5.507  18.922  0.00  0.00    +0.000 A 
ATOM      8  C   UNL     1      -7.013  -5.932  19.177  0.00  0.00    +0.000 A 
ATOM      9  C   UNL     1      -6.241  -5.264  20.131  0.00  0.00    +0.000 A 
ATOM     10  H   UNL     1      -8.483  -2.845  21.017  0.00  0.00    +0.000 HD
ATOM     11  H   UNL     1      -9.844  -4.036  19.362  0.00  0.00    +0.000 HD
ATOM     12  H   UNL     1      -6.610  -6.808  18.670  0.00  0.00    +0.000 HD
ATOM     13  H   UNL     1      -5.233  -5.628  20.303  0.00  0.00    +0.000 HD
BRANCH   4  14
ATOM     14  N   UNL     1      -6.046  -3.563  21.903  0.00  0.00    +0.000 N 
ATOM     15  H   UNL     1      -5.089  -3.936  21.972  0.00  0.00    +0.000 HD
BRANCH  14  16
ATOM     16  N   UNL     1      -6.230  -2.108  22.149  0.00  0.00    +0.000 N 
ATOM     17  H   UNL     1      -6.721  -1.631  21.380  0.00  0.00    +0.000 HD
ATOM     18  H   UNL     1      -5.309  -1.667  22.299  0.00  0.00    +0.000 HD
ATOM     19  H   UNL     1      -6.739  -1.961  23.037  0.00  0.00    +0.000 HD
ENDBRANCH  14  16
ENDBRANCH   4  14
ENDBRANCH   1   7
BRANCH   1  20
ATOM     20  N   UNL     1      -8.811  -8.045  18.177  0.00  0.00    +0.000 NA
ATOM     21  C   UNL     1      -9.183  -9.000  17.395  0.00  0.00    +0.000 A 
ATOM     22  N   UNL     1      -8.701 -10.284  17.449  0.00  0.00    +0.000 N 
ATOM     23  C   UNL     1      -9.079 -11.144  16.435  0.00  0.00    +0.000 A 
ATOM     24  C   UNL     1      -9.971 -10.592  15.592  0.00  0.00    +0.000 A 
ATOM     25  S   UNL     1     -10.348  -8.945  16.040  0.00  0.00    +0.000 S 
ATOM     26  H   UNL     1      -7.974 -10.554  18.092  0.00  0.00    +0.000 HD
ATOM     27  H   UNL     1     -10.397 -11.071  14.719  0.00  0.00    +0.000 HD
BRANCH  23  28
ATOM     28  C   UNL     1      -8.497 -12.483  16.380  0.00  0.00    +0.000 C 
ATOM     29  C   UNL     1      -7.706 -12.870  15.153  0.00  0.00    +0.000 C 
ATOM     30  C   UNL     1      -9.037 -13.509  15.417  0.00  0.00    +0.000 C 
ATOM     31  H   UNL     1      -8.145 -12.856  17.338  0.00  0.00    +0.000 HD
ATOM     32  H   UNL     1      -6.815 -13.471  15.294  0.00  0.00    +0.000 HD
ATOM     33  H   UNL     1      -7.647 -12.184  14.315  0.00  0.00    +0.000 HD
ATOM     34  H   UNL     1      -9.043 -14.548  15.729  0.00  0.00    +0.000 HD
ATOM     35  H   UNL     1      -9.861 -13.247  14.762  0.00  0.00    +0.000 HD
ENDBRANCH  23  28
ENDBRANCH   1  20
TORSDOF 5
ENDMDL
MODEL 8
REMARK VINA RESULT:    -7.567      2.209      2.830
REMARK INTER + INTRA:          -9.472
REMARK INTER:                  -9.876
REMARK INTRA:                   0.404
REMARK UNBOUND:                 0.086
REMARK  Name = 
REMARK  5 active torsions:
REMARK  status: ('A' for Active; 'I' for Inactive)
REMARK    1  A    between atoms: N_1  and  N_2
REMARK    2  A    between atoms: N_2  and  C_3
REMARK    3  A    between atoms: C_6  and  S_7
REMARK    4  A    between atoms: S_7  and  N_10
REMARK    5  A    between atoms: C_13  and  C_14
REMARK                            x       y       z     vdW  Elec       q    Type
REMARK                         _______ _______ _______ _____ _____    ______ ____
ROOT
ATOM      1  S   UNL     1      -8.103  -5.840  19.071  0.00  0.00    +0.000 S 
ATOM      2  O   UNL     1      -6.776  -5.781  18.494  0.00  0.00    +0.000 OA
ATOM      3  O   UNL     1      -9.205  -5.102  18.488  0.00  0.00    +0.000 OA
ENDROOT
BRANCH   1   7
ATOM      4  C   UNL     1      -8.790 -10.347  18.627  0.00  0.00    +0.000 A 
ATOM      5  C   UNL     1      -9.024  -9.488  17.542  0.00  0.00    +0.000 A 
ATOM      6  C   UNL     1      -8.912  -8.101  17.693  0.00  0.00    +0.000 A 
ATOM      7  C   UNL     1      -8.596  -7.565  18.943  0.00  0.00    +0.000 A 
ATOM      8  C   UNL     1      -8.460  -8.401  20.053  0.00  0.00    +0.000 A 
ATOM      9  C   UNL     1      -8.568  -9.784  19.895  0.00  0.00    +0.000 A 
ATOM     10  H   UNL     1      -9.240  -9.877  16.548  0.00  0.00    +0.000 HD
ATOM     11  H   UNL     1      -9.023  -7.451  16.825  0.00  0.00    +0.000 HD
ATOM     12  H   UNL     1      -8.226  -7.983  21.032  0.00  0.00    +0.000 HD
ATOM     13  H   UNL     1      -8.453 -10.400  20.782  0.00  0.00    +0.000 HD
BRANCH   4  14
ATOM     14  N   UNL     1      -8.791 -11.751  18.426  0.00  0.00    +0.000 N 
ATOM     15  H   UNL     1      -9.586 -12.199  18.903  0.00  0.00    +0.000 HD
BRANCH  14  16
ATOM     16  N   UNL     1      -8.399 -12.291  17.098  0.00  0.00    +0.000 N 
ATOM     17  H   UNL     1      -7.770 -11.662  16.579  0.00  0.00    +0.000 HD
ATOM     18  H   UNL     1      -9.248 -12.473  16.538  0.00  0.00    +0.000 HD
ATOM     19  H   UNL     1      -7.956 -13.218  17.210  0.00  0.00    +0.000 HD
ENDBRANCH  14  16
ENDBRANCH   4  14
ENDBRANCH   1   7
BRANCH   1  20
ATOM     20  N   UNL     1      -8.027  -5.572  20.660  0.00  0.00    +0.000 NA
ATOM     21  C   UNL     1      -8.240  -4.386  21.119  0.00  0.00    +0.000 A 
ATOM     22  N   UNL     1      -8.236  -4.053  22.450  0.00  0.00    +0.000 N 
ATOM     23  C   UNL     1      -8.646  -2.775  22.783  0.00  0.00    +0.000 A 
ATOM     24  C   UNL     1      -8.887  -2.010  21.703  0.00  0.00    +0.000 A 
ATOM     25  S   UNL     1      -8.627  -2.892  20.216  0.00  0.00    +0.000 S 
ATOM     26  H   UNL     1      -8.109  -4.744  23.173  0.00  0.00    +0.000 HD
ATOM     27  H   UNL     1      -9.230  -0.983  21.719  0.00  0.00    +0.000 HD
BRANCH  23  28
ATOM     28  C   UNL     1      -8.777  -2.412  24.192  0.00  0.00    +0.000 C 
ATOM     29  C   UNL     1     -10.159  -2.395  24.802  0.00  0.00    +0.000 C 
ATOM     30  C   UNL     1      -9.422  -1.107  24.585  0.00  0.00    +0.000 C 
ATOM     31  H   UNL     1      -7.960  -2.757  24.820  0.00  0.00    +0.000 HD
ATOM     32  H   UNL     1     -10.269  -2.755  25.818  0.00  0.00    +0.000 HD
ATOM     33  H   UNL     1     -11.024  -2.578  24.173  0.00  0.00    +0.000 HD
ATOM     34  H   UNL     1      -9.040  -0.593  25.461  0.00  0.00    +0.000 HD
ATOM     35  H   UNL     1      -9.790  -0.438  23.815  0.00  0.00    +0.000 HD
ENDBRANCH  23  28
ENDBRANCH   1  20
TORSDOF 5
ENDMDL
