REMARK  Name = 
REMARK  3 active torsions:
REMARK  status: ('A' for Active; 'I' for Inactive)
REMARK    1  A    between atoms: N_1  and  C_2
REMARK    2  A    between atoms: C_13  and  N_14
REMARK    3  A    between atoms: N_14  and  C_15
REMARK                            x       y       z     vdW  Elec       q    Type
REMARK                         _______ _______ _______ _____ _____    ______ ____
ROOT
ATOM      1  C   UNL     1      -1.079   0.719  -0.085  0.00  0.00    +0.000 A 
ATOM      2  C   UNL     1      -0.256   1.868  -0.104  0.00  0.00    +0.000 A 
ATOM      3  N   UNL     1      -0.863   3.108   0.199  0.00  0.00    +0.000 N 
ATOM      4  C   UNL     1      -0.230   4.305   0.131  0.00  0.00    +0.000 A 
ATOM      5  N   UNL     1       0.769   4.629  -0.660  0.00  0.00    +0.000 NA
ATOM      6  C   UNL     1       1.162   5.934  -0.433  0.00  0.00    +0.000 A 
ATOM      7  C   UNL     1       0.442   6.613   0.522  0.00  0.00    +0.000 A 
ATOM      8  S   UNL     1      -0.774   5.591   1.154  0.00  0.00    +0.000 S 
ATOM      9  N   UNL     1       1.058   1.797  -0.394  0.00  0.00    +0.000 NA
ATOM     10  C   UNL     1       1.573   0.584  -0.611  0.00  0.00    +0.000 A 
ATOM     11  N   UNL     1       0.877  -0.543  -0.541  0.00  0.00    +0.000 N 
ATOM     12  C   UNL     1      -0.435  -0.523  -0.265  0.00  0.00    +0.000 A 
ATOM     13  H   UNL     1      -1.504   3.015   0.981  0.00  0.00    +0.000 HD
ATOM     14  H   UNL     1       1.990   6.346  -0.999  0.00  0.00    +0.000 HD
ATOM     15  H   UNL     1       0.565   7.631   0.864  0.00  0.00    +0.000 HD
ATOM     16  H   UNL     1       2.631   0.514  -0.836  0.00  0.00    +0.000 HD
ATOM     17  H   UNL     1       1.336  -1.432  -0.700  0.00  0.00    +0.000 HD
ENDROOT
BRANCH   1  18
ATOM     18  N   UNL     1      -2.425   0.808   0.343  0.00  0.00    +0.000 N 
ATOM     19  H   UNL     1      -2.894   1.660   0.022  0.00  0.00    +0.000 HD
ATOM     20  H   UNL     1      -3.009  -0.009   0.217  0.00  0.00    +0.000 HD
ENDBRANCH   1  18
BRANCH  12  21
ATOM     21  N   UNL     1      -1.116  -1.748  -0.131  0.00  0.00    +0.000 N 
ATOM     22  H   UNL     1      -1.984  -1.784  -0.664  0.00  0.00    +0.000 HD
BRANCH  21  23
ATOM     23  C   UNL     1      -0.510  -3.004   0.069  0.00  0.00    +0.000 A 
ATOM     24  C   UNL     1       0.508  -3.156   1.026  0.00  0.00    +0.000 A 
ATOM     25  C   UNL     1       1.249  -4.334   1.103  0.00  0.00    +0.000 A 
ATOM     26  C   UNL     1       0.963  -5.382   0.233  0.00  0.00    +0.000 A 
ATOM     27 BR   UNL     1       2.014  -6.949   0.285  0.00  0.00    +0.000 Br
ATOM     28  C   UNL     1      -0.080  -5.271  -0.684  0.00  0.00    +0.000 A 
ATOM     29  C   UNL     1      -0.817  -4.084  -0.765  0.00  0.00    +0.000 A 
ATOM     30  H   UNL     1       0.725  -2.359   1.736  0.00  0.00    +0.000 HD
ATOM     31  H   UNL     1       2.041  -4.428   1.842  0.00  0.00    +0.000 HD
ATOM     32  H   UNL     1      -0.318  -6.100  -1.348  0.00  0.00    +0.000 HD
ATOM     33  H   UNL     1      -1.612  -4.019  -1.506  0.00  0.00    +0.000 HD
ENDBRANCH  21  23
ENDBRANCH  12  21
TORSDOF 3
