
 OpenBabel01112423063D

 48 51  0  0  1  0  0  0  0  0999 V2000
    1.4863   -2.7473   -1.7111 C   0  0  0  0  0  0  0  0  0  0  0  0
    1.8607   -1.4249   -1.0264 C   0  0  1  0  0  0  0  0  0  0  0  0
    2.9872   -1.6316   -0.0913 N   0  0  0  0  0  0  0  0  0  0  0  0
    2.6671   -2.3081    1.1112 C   0  0  0  0  0  0  0  0  0  0  0  0
    1.3849   -2.4745    1.4697 N   0  0  0  0  0  0  0  0  0  0  0  0
    1.1558   -3.1337    2.6115 C   0  0  0  0  0  0  0  0  0  0  0  0
    2.0844   -3.6573    3.4235 N   0  0  0  0  0  0  0  0  0  0  0  0
    3.3625   -3.5330    3.0372 C   0  0  0  0  0  0  0  0  0  0  0  0
    4.3675   -4.1293    3.8651 N   0  0  0  0  0  0  0  0  0  0  0  0
    4.1055   -5.3335    4.5973 C   0  0  0  0  0  0  0  0  0  0  0  0
    3.3670   -6.3895    4.0447 C   0  0  0  0  0  0  0  0  0  0  0  0
    3.2488   -7.6116    4.7134 C   0  0  0  0  0  0  0  0  0  0  0  0
    3.9468   -7.8394    5.8976 C   0  0  0  0  0  0  0  0  0  0  0  0
    4.6706   -6.8010    6.4897 C   0  0  0  0  0  0  0  0  0  0  0  0
    5.3167   -6.9613    7.7185 C   0  0  0  0  0  0  0  0  0  0  0  0
    5.7929   -5.8408    8.3898 C   0  0  0  0  0  0  0  0  0  0  0  0
    5.6950   -4.5952    7.7825 C   0  0  0  0  0  0  0  0  0  0  0  0
    5.2146   -4.4907    6.5340 N   0  3  0  0  0  0  0  0  0  0  0  0
    4.6931   -5.5329    5.8614 C   0  0  0  0  0  0  0  0  0  0  0  0
    3.7293   -2.8108    1.8904 C   0  0  0  0  0  0  0  0  0  0  0  0
    5.0874   -2.6677    1.4633 N   0  0  0  0  0  0  0  0  0  0  0  0
    2.2679   -0.4001   -2.0842 C   0  0  0  0  0  0  0  0  0  0  0  0
    1.4632    0.7260   -2.3270 C   0  0  0  0  0  0  0  0  0  0  0  0
    1.8085    1.6399   -3.3207 C   0  0  0  0  0  0  0  0  0  0  0  0
    2.9541    1.4543   -4.0814 C   0  0  0  0  0  0  0  0  0  0  0  0
    3.7621    0.3416   -3.8580 C   0  0  0  0  0  0  0  0  0  0  0  0
    3.4202   -0.5798   -2.8672 C   0  0  0  0  0  0  0  0  0  0  0  0
    1.0841   -3.4725   -0.9965 H   0  0  0  0  0  0  0  0  0  0  0  0
    2.3559   -3.2170   -2.1856 H   0  0  0  0  0  0  0  0  0  0  0  0
    0.7256   -2.5916   -2.4847 H   0  0  0  0  0  0  0  0  0  0  0  0
    0.9860   -1.0287   -0.4930 H   0  0  0  0  0  0  0  0  0  0  0  0
    3.3878   -0.7318    0.1698 H   0  0  0  0  0  0  0  0  0  0  0  0
    0.1217   -3.2460    2.9074 H   0  0  0  0  0  0  0  0  0  0  0  0
    5.1438   -4.3085    3.2201 H   0  0  0  0  0  0  0  0  0  0  0  0
    2.8391   -6.2667    3.1000 H   0  0  0  0  0  0  0  0  0  0  0  0
    2.6059   -8.3907    4.3055 H   0  0  0  0  0  0  0  0  0  0  0  0
    3.8582   -8.8097    6.3860 H   0  0  0  0  0  0  0  0  0  0  0  0
    5.4017   -7.9454    8.1808 H   0  0  0  0  0  0  0  0  0  0  0  0
    6.1972   -5.9409    9.3954 H   0  0  0  0  0  0  0  0  0  0  0  0
    5.9735   -3.6716    8.2815 H   0  0  0  0  0  0  0  0  0  0  0  0
    5.1440   -3.5794    6.0755 H   0  0  0  0  0  0  0  0  0  0  0  0
    5.5059   -3.5626    1.2245 H   0  0  0  0  0  0  0  0  0  0  0  0
    5.0627   -2.1210    0.5964 H   0  0  0  0  0  0  0  0  0  0  0  0
    0.5515    0.8892   -1.7511 H   0  0  0  0  0  0  0  0  0  0  0  0
    1.1693    2.5113   -3.5025 H   0  0  0  0  0  0  0  0  0  0  0  0
    3.2146    2.1666   -4.8609 H   0  0  0  0  0  0  0  0  0  0  0  0
    4.6529    0.1851   -4.4622 H   0  0  0  0  0  0  0  0  0  0  0  0
    4.0586   -1.4468   -2.7090 H   0  0  0  0  0  0  0  0  0  0  0  0
  1  2  1  0  0  0  0
  1 28  1  0  0  0  0
  1 29  1  0  0  0  0
  1 30  1  0  0  0  0
  2  3  1  0  0  0  0
  2 22  1  0  0  0  0
  2 31  1  1  0  0  0
  3  4  1  0  0  0  0
  3 32  1  0  0  0  0
  4  5  1  0  0  0  0
  4 20  2  0  0  0  0
  5  6  2  0  0  0  0
  6  7  1  0  0  0  0
  6 33  1  0  0  0  0
  7  8  2  0  0  0  0
  8  9  1  0  0  0  0
  8 20  1  0  0  0  0
  9 10  1  0  0  0  0
  9 34  1  0  0  0  0
 10 11  1  0  0  0  0
 10 19  2  0  0  0  0
 11 12  2  0  0  0  0
 11 35  1  0  0  0  0
 12 13  1  0  0  0  0
 12 36  1  0  0  0  0
 13 14  2  0  0  0  0
 13 37  1  0  0  0  0
 14 15  1  0  0  0  0
 14 19  1  0  0  0  0
 15 16  2  0  0  0  0
 15 38  1  0  0  0  0
 16 17  1  0  0  0  0
 16 39  1  0  0  0  0
 17 18  2  0  0  0  0
 17 40  1  0  0  0  0
 18 19  1  0  0  0  0
 18 41  1  0  0  0  0
 20 21  1  0  0  0  0
 21 42  1  0  0  0  0
 21 43  1  0  0  0  0
 22 23  1  0  0  0  0
 22 27  2  0  0  0  0
 23 24  2  0  0  0  0
 23 44  1  0  0  0  0
 24 25  1  0  0  0  0
 24 45  1  0  0  0  0
 25 26  2  0  0  0  0
 25 46  1  0  0  0  0
 26 27  1  0  0  0  0
 26 47  1  0  0  0  0
 27 48  1  0  0  0  0
M  CHG  1  18   1
M  END
$$$$
