REMARK  Name = 
REMARK  8 active torsions:
REMARK  status: ('A' for Active; 'I' for Inactive)
REMARK    1  A    between atoms: C_1  and  S_2
REMARK    2  A    between atoms: S_2  and  C_3
REMARK    3  A    between atoms: C_6  and  C_7
REMARK    4  A    between atoms: C_8  and  C_9
REMARK    5  A    between atoms: N_11  and  C_12
REMARK    6  A    between atoms: C_15  and  C_16
REMARK    7  A    between atoms: C_18  and  C_19
REMARK    8  A    between atoms: C_20  and  C_21
REMARK                            x       y       z     vdW  Elec       q    Type
REMARK                         _______ _______ _______ _____ _____    ______ ____
ROOT
ATOM      1  C   UNL     1      -0.168   2.275   1.377  0.00  0.00    +0.000 C 
ATOM      2  C   UNL     1       1.342   1.961   1.176  0.00  0.00    +0.000 C 
ATOM      3  C   UNL     1       2.010   3.258   0.671  0.00  0.00    +0.000 C 
ATOM      4  N   UNL     1       1.435   3.617  -0.612  0.00  0.00    +0.000 N 
ATOM      5  C   UNL     1       0.112   3.490  -0.803  0.00  0.00    +0.000 A 
ATOM      6  N   UNL     1      -0.609   3.804  -1.841  0.00  0.00    +0.000 NA
ATOM      7  C   UNL     1      -1.871   3.449  -1.467  0.00  0.00    +0.000 A 
ATOM      8  N   UNL     1      -1.976   2.868  -0.264  0.00  0.00    +0.000 NA
ATOM      9  N   UNL     1      -0.692   2.870   0.134  0.00  0.00    +0.000 N 
ATOM     10  H   UNL     1      -0.266   3.101   2.098  0.00  0.00    +0.000 HD
ATOM     11  H   UNL     1       1.776   1.728   2.158  0.00  0.00    +0.000 HD
ATOM     12  H   UNL     1       1.750   4.058   1.385  0.00  0.00    +0.000 HD
ATOM     13  H   UNL     1       2.049   3.830  -1.394  0.00  0.00    +0.000 HD
ATOM     14  H   UNL     1      -2.737   3.595  -2.100  0.00  0.00    +0.000 HD
ENDROOT
BRANCH   1  18
ATOM     15  C   UNL     1      -1.771  -1.368   3.149  0.00  0.00    +0.000 A 
ATOM     16  C   UNL     1      -0.868  -0.552   3.832  0.00  0.00    +0.000 A 
ATOM     17  C   UNL     1      -0.447   0.661   3.282  0.00  0.00    +0.000 A 
ATOM     18  C   UNL     1      -0.887   1.085   2.013  0.00  0.00    +0.000 A 
ATOM     19  C   UNL     1      -1.869   0.310   1.389  0.00  0.00    +0.000 A 
ATOM     20  C   UNL     1      -2.292  -0.908   1.941  0.00  0.00    +0.000 A 
ATOM     21  H   UNL     1      -0.450  -0.873   4.783  0.00  0.00    +0.000 HD
ATOM     22  H   UNL     1       0.282   1.244   3.844  0.00  0.00    +0.000 HD
ATOM     23  H   UNL     1      -2.300   0.596   0.434  0.00  0.00    +0.000 HD
ATOM     24  H   UNL     1      -2.997  -1.502   1.367  0.00  0.00    +0.000 HD
BRANCH  15  25
ATOM     25  S   UNL     1      -2.088  -2.987   3.830  0.00  0.00    +0.000 S 
BRANCH  25  26
ATOM     26  C   UNL     1      -3.778  -3.326   3.281  0.00  0.00    +0.000 C 
ATOM     27  H   UNL     1      -4.074  -4.309   3.659  0.00  0.00    +0.000 HD
ATOM     28  H   UNL     1      -3.851  -3.354   2.191  0.00  0.00    +0.000 HD
ATOM     29  H   UNL     1      -4.463  -2.577   3.684  0.00  0.00    +0.000 HD
ENDBRANCH  25  26
ENDBRANCH  15  25
ENDBRANCH   1  18
BRANCH   2  30
ATOM     30  C   UNL     1       1.717   0.746   0.297  0.00  0.00    +0.000 C 
ATOM     31  O   UNL     1       2.885   0.355   0.362  0.00  0.00    +0.000 OA
ATOM     32  N   UNL     1       0.756   0.186  -0.528  0.00  0.00    +0.000 N 
ATOM     33  H   UNL     1      -0.146   0.630  -0.594  0.00  0.00    +0.000 HD
BRANCH  32  34
ATOM     34  C   UNL     1       0.882  -0.971  -1.351  0.00  0.00    +0.000 A 
ATOM     35  C   UNL     1       2.030  -1.771  -1.335  0.00  0.00    +0.000 A 
ATOM     36  C   UNL     1       2.150  -2.894  -2.160  0.00  0.00    +0.000 A 
ATOM     37  C   UNL     1       1.115  -3.261  -3.013  0.00  0.00    +0.000 A 
ATOM     38  C   UNL     1      -0.055  -2.497  -3.011  0.00  0.00    +0.000 A 
ATOM     39  C   UNL     1      -0.182  -1.345  -2.205  0.00  0.00    +0.000 A 
ATOM     40  H   UNL     1       2.870  -1.558  -0.684  0.00  0.00    +0.000 HD
ATOM     41  H   UNL     1       3.070  -3.472  -2.123  0.00  0.00    +0.000 HD
ATOM     42  H   UNL     1      -0.876  -2.797  -3.662  0.00  0.00    +0.000 HD
BRANCH  37  43
ATOM     43  C   UNL     1       1.245  -4.449  -3.918  0.00  0.00    +0.000 C 
ATOM     44  H   UNL     1       2.247  -4.888  -3.861  0.00  0.00    +0.000 HD
ATOM     45  H   UNL     1       1.076  -4.148  -4.957  0.00  0.00    +0.000 HD
ATOM     46  H   UNL     1       0.520  -5.220  -3.641  0.00  0.00    +0.000 HD
ENDBRANCH  37  43
BRANCH  39  47
ATOM     47  C   UNL     1      -1.477  -0.584  -2.305  0.00  0.00    +0.000 C 
ATOM     48  H   UNL     1      -2.057  -0.893  -3.183  0.00  0.00    +0.000 HD
ATOM     49  H   UNL     1      -1.294   0.488  -2.418  0.00  0.00    +0.000 HD
ATOM     50  H   UNL     1      -2.096  -0.771  -1.424  0.00  0.00    +0.000 HD
ENDBRANCH  39  47
ENDBRANCH  32  34
ENDBRANCH   2  30
BRANCH   3  51
ATOM     51  C   UNL     1       3.532   3.255   0.634  0.00  0.00    +0.000 C 
ATOM     52  H   UNL     1       3.938   2.543  -0.088  0.00  0.00    +0.000 HD
ATOM     53  H   UNL     1       3.943   3.026   1.625  0.00  0.00    +0.000 HD
ATOM     54  H   UNL     1       3.906   4.245   0.347  0.00  0.00    +0.000 HD
ENDBRANCH   3  51
TORSDOF 8
