REMARK  Name = 
REMARK  8 active torsions:
REMARK  status: ('A' for Active; 'I' for Inactive)
REMARK    1  A    between atoms: C_1  and  C_2
REMARK    2  A    between atoms: C_2  and  C_3
REMARK    3  A    between atoms: C_11  and  N_12
REMARK    4  A    between atoms: C_13  and  C_14
REMARK    5  A    between atoms: C_16  and  C_17
REMARK    6  A    between atoms: C_20  and  C_21
REMARK    7  A    between atoms: C_21  and  O_22
REMARK    8  A    between atoms: O_22  and  C_23
REMARK                            x       y       z     vdW  Elec       q    Type
REMARK                         _______ _______ _______ _____ _____    ______ ____
ROOT
ATOM      1  C   UNL     1      -3.215  -2.657  -1.491  0.00  0.00    +0.000 C 
ATOM      2  C   UNL     1      -2.980  -1.253  -0.916  0.00  0.00    +0.000 C 
ATOM      3  C   UNL     1      -1.691  -0.662  -1.463  0.00  0.00    +0.000 C 
ATOM      4  O   UNL     1      -1.658   0.494  -1.878  0.00  0.00    +0.000 OA
ATOM      5  C   UNL     1      -0.486  -1.540  -1.503  0.00  0.00    +0.000 C 
ATOM      6  C   UNL     1      -0.675  -2.862  -1.328  0.00  0.00    +0.000 C 
ATOM      7  C   UNL     1      -2.005  -3.536  -1.121  0.00  0.00    +0.000 C 
ATOM      8  O   UNL     1       0.366  -3.769  -1.401  0.00  0.00    +0.000 OA
ATOM      9  C   UNL     1       1.679  -3.333  -1.464  0.00  0.00    +0.000 C 
ATOM     10  C   UNL     1       1.978  -2.025  -1.635  0.00  0.00    +0.000 C 
ATOM     11  C   UNL     1       0.877  -0.988  -1.877  0.00  0.00    +0.000 C 
ATOM     12  H   UNL     1      -2.906  -1.274   0.179  0.00  0.00    +0.000 HD
ATOM     13  H   UNL     1      -3.810  -0.587  -1.176  0.00  0.00    +0.000 HD
ATOM     14  H   UNL     1      -2.061  -3.837  -0.067  0.00  0.00    +0.000 HD
ATOM     15  H   UNL     1      -2.039  -4.462  -1.710  0.00  0.00    +0.000 HD
ATOM     16  H   UNL     1       0.824  -0.916  -2.978  0.00  0.00    +0.000 HD
ENDROOT
BRANCH  11  17
ATOM     17  C   UNL     1       1.234   0.424  -1.463  0.00  0.00    +0.000 A 
ATOM     18  C   UNL     1       1.915   1.412  -2.157  0.00  0.00    +0.000 A 
ATOM     19  C   UNL     1       1.906   2.558  -1.341  0.00  0.00    +0.000 A 
ATOM     20  C   UNL     1       1.214   2.219  -0.196  0.00  0.00    +0.000 A 
ATOM     21  O   UNL     1       0.831   0.903  -0.248  0.00  0.00    +0.000 OA
ATOM     22  H   UNL     1       2.346   1.316  -3.141  0.00  0.00    +0.000 HD
ATOM     23  H   UNL     1       2.327   3.531  -1.564  0.00  0.00    +0.000 HD
BRANCH  20  24
ATOM     24  C   UNL     1       0.809   3.022   0.987  0.00  0.00    +0.000 C 
ATOM     25  H   UNL     1      -0.066   2.572   1.471  0.00  0.00    +0.000 HD
ATOM     26  H   UNL     1       0.570   4.040   0.657  0.00  0.00    +0.000 HD
BRANCH  24  27
ATOM     27  O   UNL     1       1.927   3.048   1.871  0.00  0.00    +0.000 OA
BRANCH  27  28
ATOM     28  C   UNL     1       1.780   3.704   3.062  0.00  0.00    +0.000 A 
ATOM     29  C   UNL     1       0.671   4.465   3.446  0.00  0.00    +0.000 A 
ATOM     30  C   UNL     1       0.646   5.073   4.707  0.00  0.00    +0.000 A 
ATOM     31  C   UNL     1       1.724   4.925   5.574  0.00  0.00    +0.000 A 
ATOM     32  F   UNL     1       1.686   5.505   6.780  0.00  0.00    +0.000 F 
ATOM     33  C   UNL     1       2.839   4.186   5.205  0.00  0.00    +0.000 A 
ATOM     34  C   UNL     1       2.857   3.586   3.951  0.00  0.00    +0.000 A 
ATOM     35  F   UNL     1       3.939   2.874   3.602  0.00  0.00    +0.000 F 
ATOM     36  H   UNL     1      -0.185   4.607   2.795  0.00  0.00    +0.000 HD
ATOM     37  H   UNL     1      -0.211   5.664   5.020  0.00  0.00    +0.000 HD
ATOM     38  H   UNL     1       3.678   4.075   5.880  0.00  0.00    +0.000 HD
ENDBRANCH  27  28
ENDBRANCH  24  27
ENDBRANCH  20  24
ENDBRANCH  11  17
BRANCH   1  39
ATOM     39  C   UNL     1      -4.488  -3.276  -0.890  0.00  0.00    +0.000 C 
ATOM     40  H   UNL     1      -5.371  -2.670  -1.118  0.00  0.00    +0.000 HD
ATOM     41  H   UNL     1      -4.415  -3.363   0.200  0.00  0.00    +0.000 HD
ATOM     42  H   UNL     1      -4.661  -4.282  -1.291  0.00  0.00    +0.000 HD
ENDBRANCH   1  39
BRANCH   1  43
ATOM     43  C   UNL     1      -3.401  -2.584  -3.023  0.00  0.00    +0.000 C 
ATOM     44  H   UNL     1      -4.255  -1.947  -3.281  0.00  0.00    +0.000 HD
ATOM     45  H   UNL     1      -3.588  -3.577  -3.445  0.00  0.00    +0.000 HD
ATOM     46  H   UNL     1      -2.522  -2.176  -3.533  0.00  0.00    +0.000 HD
ENDBRANCH   1  43
BRANCH   9  47
ATOM     47  N   UNL     1       2.579  -4.366  -1.365  0.00  0.00    +0.000 N 
ATOM     48  H   UNL     1       2.179  -5.195  -0.932  0.00  0.00    +0.000 HD
ATOM     49  H   UNL     1       3.506  -4.128  -1.022  0.00  0.00    +0.000 HD
ENDBRANCH   9  47
BRANCH  10  50
ATOM     50  C   UNL     1       3.343  -1.617  -1.674  0.00  0.00    +0.000 C 
ATOM     51  N   UNL     1       4.464  -1.320  -1.694  0.00  0.00    +0.000 NA
ENDBRANCH  10  50
TORSDOF 8
