REMARK  Name = 
REMARK  7 active torsions:
REMARK  status: ('A' for Active; 'I' for Inactive)
REMARK    1  A    between atoms: C_1  and  C_2
REMARK    2  A    between atoms: C_2  and  C_3
REMARK    3  A    between atoms: C_3  and  S_4
REMARK    4  A    between atoms: S_4  and  C_5
REMARK    5  A    between atoms: C_18  and  C_19
REMARK    6  A    between atoms: C_18  and  C_20
REMARK    7  A    between atoms: C_22  and  C_23
REMARK                            x       y       z     vdW  Elec       q    Type
REMARK                         _______ _______ _______ _____ _____    ______ ____
ROOT
ATOM      1  C   UNL     1      -1.709   1.622  -2.453  0.00  0.00    +0.000 A 
ATOM      2  N   UNL     1      -1.357   2.649  -1.763  0.00  0.00    +0.000 NA
ATOM      3  C   UNL     1      -1.055   2.452  -0.432  0.00  0.00    +0.000 A 
ATOM      4  O   UNL     1      -0.903   3.382   0.349  0.00  0.00    +0.000 OA
ATOM      5  C   UNL     1      -0.911   1.046   0.054  0.00  0.00    +0.000 A 
ATOM      6  C   UNL     1      -1.321   0.031  -0.735  0.00  0.00    +0.000 A 
ATOM      7  N   UNL     1      -1.773   0.347  -1.984  0.00  0.00    +0.000 N 
ATOM      8  N   UNL     1      -1.263  -1.265  -0.256  0.00  0.00    +0.000 N 
ATOM      9  C   UNL     1      -0.961  -1.587   1.063  0.00  0.00    +0.000 C 
ATOM     10  C   UNL     1      -0.580  -0.614   1.916  0.00  0.00    +0.000 C 
ATOM     11  C   UNL     1      -0.367  -0.914   3.359  0.00  0.00    +0.000 C 
ATOM     12  O   UNL     1      -0.029  -0.034   4.147  0.00  0.00    +0.000 OA
ATOM     13  C   UNL     1      -0.689  -2.303   3.851  0.00  0.00    +0.000 C 
ATOM     14  C   UNL     1      -0.366  -3.381   2.808  0.00  0.00    +0.000 C 
ATOM     15  C   UNL     1      -1.077  -3.041   1.475  0.00  0.00    +0.000 C 
ATOM     16  C   UNL     1      -0.383   0.825   1.456  0.00  0.00    +0.000 C 
ATOM     17  H   UNL     1      -2.010  -0.394  -2.626  0.00  0.00    +0.000 HD
ATOM     18  H   UNL     1      -1.692  -1.988  -0.824  0.00  0.00    +0.000 HD
ATOM     19  H   UNL     1      -1.756  -2.310   4.106  0.00  0.00    +0.000 HD
ATOM     20  H   UNL     1      -0.123  -2.482   4.773  0.00  0.00    +0.000 HD
ATOM     21  H   UNL     1      -2.145  -3.285   1.545  0.00  0.00    +0.000 HD
ATOM     22  H   UNL     1      -0.663  -3.675   0.679  0.00  0.00    +0.000 HD
ATOM     23  H   UNL     1      -0.982   1.456   2.128  0.00  0.00    +0.000 HD
ENDROOT
BRANCH  16  24
ATOM     24  C   UNL     1       1.091   1.206   1.570  0.00  0.00    +0.000 A 
ATOM     25  C   UNL     1       2.090   0.535   0.853  0.00  0.00    +0.000 A 
ATOM     26  C   UNL     1       3.414   0.864   1.091  0.00  0.00    +0.000 A 
ATOM     27  N   UNL     1       3.809   1.805   1.974  0.00  0.00    +0.000 NA
ATOM     28  C   UNL     1       2.831   2.452   2.645  0.00  0.00    +0.000 A 
ATOM     29  C   UNL     1       1.481   2.200   2.473  0.00  0.00    +0.000 A 
ATOM     30  H   UNL     1       1.851  -0.250   0.142  0.00  0.00    +0.000 HD
ATOM     31  H   UNL     1       4.219   0.353   0.572  0.00  0.00    +0.000 HD
ATOM     32  H   UNL     1       3.169   3.195   3.361  0.00  0.00    +0.000 HD
ATOM     33  H   UNL     1       0.749   2.746   3.061  0.00  0.00    +0.000 HD
ENDBRANCH  16  24
BRANCH  14  34
ATOM     34  C   UNL     1       1.161  -3.492   2.607  0.00  0.00    +0.000 C 
ATOM     35  H   UNL     1       1.673  -3.701   3.559  0.00  0.00    +0.000 HD
ATOM     36  H   UNL     1       1.597  -2.576   2.195  0.00  0.00    +0.000 HD
ATOM     37  H   UNL     1       1.408  -4.309   1.920  0.00  0.00    +0.000 HD
ENDBRANCH  14  34
BRANCH  14  38
ATOM     38  C   UNL     1      -0.873  -4.734   3.339  0.00  0.00    +0.000 C 
ATOM     39  H   UNL     1      -0.385  -4.991   4.287  0.00  0.00    +0.000 HD
ATOM     40  H   UNL     1      -0.672  -5.543   2.629  0.00  0.00    +0.000 HD
ATOM     41  H   UNL     1      -1.953  -4.708   3.524  0.00  0.00    +0.000 HD
ENDBRANCH  14  38
BRANCH   1  42
ATOM     42  S   UNL     1      -2.135   1.820  -4.135  0.00  0.00    +0.000 S 
BRANCH  42  43
ATOM     43  C   UNL     1      -0.591   2.584  -4.723  0.00  0.00    +0.000 C 
ATOM     44  H   UNL     1      -0.398   3.511  -4.174  0.00  0.00    +0.000 HD
ATOM     45  H   UNL     1       0.233   1.890  -4.525  0.00  0.00    +0.000 HD
BRANCH  43  46
ATOM     46  C   UNL     1      -0.689   2.872  -6.219  0.00  0.00    +0.000 C 
ATOM     47  H   UNL     1      -0.926   1.955  -6.772  0.00  0.00    +0.000 HD
ATOM     48  H   UNL     1      -1.493   3.591  -6.414  0.00  0.00    +0.000 HD
BRANCH  46  49
ATOM     49  C   UNL     1       0.616   3.439  -6.761  0.00  0.00    +0.000 C 
ATOM     50  H   UNL     1       0.521   3.649  -7.831  0.00  0.00    +0.000 HD
ATOM     51  H   UNL     1       1.438   2.728  -6.627  0.00  0.00    +0.000 HD
ATOM     52  H   UNL     1       0.881   4.372  -6.254  0.00  0.00    +0.000 HD
ENDBRANCH  46  49
ENDBRANCH  43  46
ENDBRANCH  42  43
ENDBRANCH   1  42
TORSDOF 7
