REMARK  Name = 
REMARK  7 active torsions:
REMARK  status: ('A' for Active; 'I' for Inactive)
REMARK    1  A    between atoms: C_1  and  C_2
REMARK    2  A    between atoms: N_5  and  C_6
REMARK    3  A    between atoms: N_11  and  C_12
REMARK    4  A    between atoms: C_12  and  C_13
REMARK    5  A    between atoms: C_12  and  C_14
REMARK    6  A    between atoms: C_20  and  N_21
REMARK    7  A    between atoms: C_23  and  C_24
REMARK                            x       y       z     vdW  Elec       q    Type
REMARK                         _______ _______ _______ _____ _____    ______ ____
ROOT
ATOM      1  C   UNL     1       1.112  -0.450  -1.028  0.00  0.00    +0.000 A 
ATOM      2  N   UNL     1       0.195   0.024  -1.883  0.00  0.00    +0.000 N 
ATOM      3  C   UNL     1      -1.097  -0.127  -1.654  0.00  0.00    +0.000 A 
ATOM      4  N   UNL     1      -1.606  -0.681  -0.547  0.00  0.00    +0.000 NA
ATOM      5  C   UNL     1      -0.726  -1.117   0.375  0.00  0.00    +0.000 A 
ATOM      6  N   UNL     1      -1.208  -1.561   1.609  0.00  0.00    +0.000 N 
ATOM      7  C   UNL     1       0.675  -1.031   0.181  0.00  0.00    +0.000 A 
ATOM      8  H   UNL     1       0.537   0.519  -2.713  0.00  0.00    +0.000 HD
ATOM      9  H   UNL     1      -1.787   0.231  -2.411  0.00  0.00    +0.000 HD
ATOM     10  H   UNL     1      -0.926  -2.511   1.827  0.00  0.00    +0.000 HD
ENDROOT
BRANCH   1  14
ATOM     11  C   UNL     1       2.723   1.735  -4.209  0.00  0.00    +0.000 A 
ATOM     12  N   UNL     1       2.039   1.121  -3.170  0.00  0.00    +0.000 NA
ATOM     13  C   UNL     1       2.875   0.426  -2.419  0.00  0.00    +0.000 A 
ATOM     14  N   UNL     1       2.470  -0.253  -1.320  0.00  0.00    +0.000 N 
ATOM     15  S   UNL     1       4.496   0.402  -2.965  0.00  0.00    +0.000 S 
ATOM     16  C   UNL     1       4.070   1.430  -4.269  0.00  0.00    +0.000 A 
ATOM     17  H   UNL     1       3.090  -0.957  -0.929  0.00  0.00    +0.000 HD
BRANCH  11  18
ATOM     18  C   UNL     1       1.969   2.623  -5.136  0.00  0.00    +0.000 C 
ATOM     19  H   UNL     1       0.932   2.738  -4.804  0.00  0.00    +0.000 HD
ATOM     20  H   UNL     1       1.959   2.202  -6.146  0.00  0.00    +0.000 HD
ATOM     21  H   UNL     1       2.424   3.618  -5.171  0.00  0.00    +0.000 HD
ENDBRANCH  11  18
BRANCH  16  22
ATOM     22  C   UNL     1       5.088   1.872  -5.266  0.00  0.00    +0.000 C 
ATOM     23  H   UNL     1       6.099   1.547  -5.003  0.00  0.00    +0.000 HD
ATOM     24  H   UNL     1       5.096   2.965  -5.341  0.00  0.00    +0.000 HD
ATOM     25  H   UNL     1       4.847   1.464  -6.253  0.00  0.00    +0.000 HD
ENDBRANCH  16  22
ENDBRANCH   1  14
BRANCH   7  26
ATOM     26  N   UNL     1       1.594  -1.647   1.067  0.00  0.00    +0.000 N 
ATOM     27  H   UNL     1       1.167  -1.846   1.973  0.00  0.00    +0.000 HD
ATOM     28  H   UNL     1       2.461  -1.130   1.201  0.00  0.00    +0.000 HD
ENDBRANCH   7  26
BRANCH   6  29
ATOM     29  C   UNL     1      -2.600  -1.244   1.977  0.00  0.00    +0.000 C 
ATOM     30  H   UNL     1      -3.046  -0.535   1.270  0.00  0.00    +0.000 HD
BRANCH  29  31
ATOM     31  C   UNL     1      -2.643  -0.583   3.347  0.00  0.00    +0.000 A 
ATOM     32  C   UNL     1      -3.664   0.339   3.637  0.00  0.00    +0.000 A 
ATOM     33  C   UNL     1      -3.761   0.926   4.899  0.00  0.00    +0.000 A 
ATOM     34  C   UNL     1      -2.837   0.602   5.889  0.00  0.00    +0.000 A 
ATOM     35  C   UNL     1      -1.819  -0.309   5.619  0.00  0.00    +0.000 A 
ATOM     36  C   UNL     1      -1.725  -0.901   4.359  0.00  0.00    +0.000 A 
ATOM     37  H   UNL     1      -4.406   0.601   2.883  0.00  0.00    +0.000 HD
ATOM     38  H   UNL     1      -4.563   1.629   5.116  0.00  0.00    +0.000 HD
ATOM     39  H   UNL     1      -2.915   1.053   6.875  0.00  0.00    +0.000 HD
ATOM     40  H   UNL     1      -1.103  -0.566   6.396  0.00  0.00    +0.000 HD
ATOM     41  H   UNL     1      -0.931  -1.621   4.183  0.00  0.00    +0.000 HD
ENDBRANCH  29  31
BRANCH  29  42
ATOM     42  C   UNL     1      -3.466  -2.507   1.986  0.00  0.00    +0.000 C 
ATOM     43  H   UNL     1      -3.147  -3.213   2.761  0.00  0.00    +0.000 HD
ATOM     44  H   UNL     1      -3.426  -3.023   1.021  0.00  0.00    +0.000 HD
ATOM     45  H   UNL     1      -4.515  -2.254   2.186  0.00  0.00    +0.000 HD
ENDBRANCH  29  42
ENDBRANCH   6  29
TORSDOF 7
