
 OpenBabel01112423143D

 38 41  0  0  1  0  0  0  0  0999 V2000
    2.1040    2.2383    3.9642 F   0  0  0  0  0  0  0  0  0  0  0  0
    2.0530    1.1525    3.1773 C   0  0  0  0  0  0  0  0  0  0  0  0
    1.3993    0.0192    3.6418 C   0  0  0  0  0  0  0  0  0  0  0  0
    1.3418   -1.1167    2.8336 C   0  0  0  0  0  0  0  0  0  0  0  0
    1.9304   -1.1019    1.5640 C   0  0  0  0  0  0  0  0  0  0  0  0
    1.8441   -2.6491    0.4825 Br  0  0  0  0  0  0  0  0  0  0  0  0
    2.5876    0.0343    1.0938 C   0  0  0  0  0  0  0  0  0  0  0  0
    2.6507    1.1596    1.9157 C   0  0  0  0  0  0  0  0  0  0  0  0
    3.3456    2.3824    1.5081 C   0  0  0  0  0  0  0  0  0  0  0  0
    3.9012    2.5297    0.3506 N   0  0  0  0  0  0  0  0  0  0  0  0
    4.4862    3.8070    0.1429 N   0  0  0  0  0  0  0  0  0  0  0  0
    5.5513    4.0230   -0.7707 C   0  0  0  0  0  0  0  0  0  0  0  0
    6.3390    2.9666   -1.8060 S   0  5  0  0  0  0  0  0  0  0  0  0
    6.0030    5.3458   -0.5871 N   0  3  0  0  0  0  0  0  0  0  0  0
    5.2648    6.0437    0.3607 N   0  0  0  0  0  0  0  0  0  0  0  0
    4.2625    5.0717    0.9019 C   0  0  1  0  0  0  0  0  0  0  0  0
    2.8417    5.6708    0.7699 C   0  0  1  0  0  0  0  0  0  0  0  0
    1.7625    4.6267    0.5522 N   0  0  0  0  0  0  0  0  0  0  0  0
    0.8998    4.6602    1.4858 N   0  0  0  0  0  0  0  0  0  0  0  0
    1.2523    5.6330    2.3578 C   0  0  0  0  0  0  0  0  0  0  0  0
    2.3593    6.2772    2.0312 C   0  0  0  0  0  0  0  0  0  0  0  0
    2.8662    7.1336    3.1112 C   0  0  0  0  0  0  0  0  0  0  0  0
    1.6388    7.1645    4.0524 C   0  0  0  0  0  0  0  0  0  0  0  0
    0.7603    5.9384    3.7132 C   0  0  0  0  0  0  0  0  0  0  0  0
    0.9444    0.0257    4.6274 H   0  0  0  0  0  0  0  0  0  0  0  0
    0.8378   -2.0070    3.1986 H   0  0  0  0  0  0  0  0  0  0  0  0
    3.0436    0.0450    0.1058 H   0  0  0  0  0  0  0  0  0  0  0  0
    3.3700    3.1709    2.2734 H   0  0  0  0  0  0  0  0  0  0  0  0
    6.8439    5.6357   -1.0803 H   0  0  0  0  0  0  0  0  0  0  0  0
    5.9005    6.3556    1.0941 H   0  0  0  0  0  0  0  0  0  0  0  0
    4.5379    4.8800    1.9452 H   0  0  0  0  0  0  0  0  0  0  0  0
    2.7768    6.3833   -0.0605 H   0  0  0  0  0  0  0  0  0  0  0  0
    3.1364    8.1359    2.7712 H   0  0  0  0  0  0  0  0  0  0  0  0
    3.7253    6.6711    3.6084 H   0  0  0  0  0  0  0  0  0  0  0  0
    1.0648    8.0819    3.8649 H   0  0  0  0  0  0  0  0  0  0  0  0
    1.9316    7.1789    5.1075 H   0  0  0  0  0  0  0  0  0  0  0  0
   -0.3028    6.1914    3.7360 H   0  0  0  0  0  0  0  0  0  0  0  0
    0.9548    5.1083    4.4006 H   0  0  0  0  0  0  0  0  0  0  0  0
  1  2  1  0  0  0  0
  2  3  1  0  0  0  0
  2  8  2  0  0  0  0
  3  4  2  0  0  0  0
  3 25  1  0  0  0  0
  4  5  1  0  0  0  0
  4 26  1  0  0  0  0
  5  6  1  0  0  0  0
  5  7  2  0  0  0  0
  7  8  1  0  0  0  0
  7 27  1  0  0  0  0
  8  9  1  0  0  0  0
  9 10  2  0  0  0  0
  9 28  1  0  0  0  0
 10 11  1  0  0  0  0
 11 12  1  0  0  0  0
 11 16  1  0  0  0  0
 12 13  1  0  0  0  0
 12 14  2  0  0  0  0
 14 15  1  0  0  0  0
 14 29  1  0  0  0  0
 15 16  1  0  0  0  0
 15 30  1  0  0  0  0
 16 17  1  0  0  0  0
 16 31  1  1  0  0  0
 17 18  1  0  0  0  0
 17 21  1  0  0  0  0
 17 32  1  6  0  0  0
 18 19  2  0  0  0  0
 19 20  1  0  0  0  0
 20 21  2  0  0  0  0
 20 24  1  0  0  0  0
 21 22  1  0  0  0  0
 22 23  1  0  0  0  0
 22 33  1  0  0  0  0
 22 34  1  0  0  0  0
 23 24  1  0  0  0  0
 23 35  1  0  0  0  0
 23 36  1  0  0  0  0
 24 37  1  0  0  0  0
 24 38  1  0  0  0  0
M  CHG  2  13  -1  14   1
M  END
$$$$
