REMARK  Name = 
REMARK  6 active torsions:
REMARK  status: ('A' for Active; 'I' for Inactive)
REMARK    1  A    between atoms: C_1  and  C_2
REMARK    2  A    between atoms: N_7  and  C_8
REMARK    3  A    between atoms: N_13  and  C_14
REMARK    4  A    between atoms: C_14  and  C_15
REMARK    5  A    between atoms: C_15  and  C_16
REMARK    6  A    between atoms: C_21  and  N_22
REMARK                            x       y       z     vdW  Elec       q    Type
REMARK                         _______ _______ _______ _____ _____    ______ ____
ROOT
ATOM      1  C   UNL     1       1.141   0.310  -0.682  0.00  0.00    +0.000 A 
ATOM      2  N   UNL     1       0.452   0.929  -1.673  0.00  0.00    +0.000 NA
ATOM      3  C   UNL     1      -0.887   0.819  -1.584  0.00  0.00    +0.000 A 
ATOM      4  N   UNL     1      -1.574   0.191  -0.624  0.00  0.00    +0.000 NA
ATOM      5  C   UNL     1      -0.870  -0.390   0.361  0.00  0.00    +0.000 A 
ATOM      6  N   UNL     1      -1.543  -0.962   1.462  0.00  0.00    +0.000 N 
ATOM      7  C   UNL     1       0.534  -0.382   0.377  0.00  0.00    +0.000 A 
ATOM      8  H   UNL     1      -1.477   1.299  -2.360  0.00  0.00    +0.000 HD
ATOM      9  H   UNL     1      -1.061  -1.806   1.745  0.00  0.00    +0.000 HD
ENDROOT
BRANCH   1  15
ATOM     10  C   UNL     1       5.396   2.330  -2.108  0.00  0.00    +0.000 A 
ATOM     11  C   UNL     1       4.709   3.059  -3.080  0.00  0.00    +0.000 A 
ATOM     12  C   UNL     1       3.340   2.872  -3.233  0.00  0.00    +0.000 A 
ATOM     13  N   UNL     1       2.700   2.003  -2.446  0.00  0.00    +0.000 N 
ATOM     14  C   UNL     1       3.308   1.267  -1.507  0.00  0.00    +0.000 A 
ATOM     15  N   UNL     1       2.547   0.466  -0.658  0.00  0.00    +0.000 N 
ATOM     16  C   UNL     1       4.682   1.423  -1.319  0.00  0.00    +0.000 A 
ATOM     17  H   UNL     1       5.228   3.782  -3.706  0.00  0.00    +0.000 HD
ATOM     18  H   UNL     1       2.738   3.411  -3.954  0.00  0.00    +0.000 HD
ATOM     19  H   UNL     1       1.685   1.867  -2.511  0.00  0.00    +0.000 HD
ATOM     20  H   UNL     1       3.007  -0.398  -0.392  0.00  0.00    +0.000 HD
ATOM     21  H   UNL     1       5.195   0.865  -0.536  0.00  0.00    +0.000 HD
BRANCH  10  22
ATOM     22  C   UNL     1       6.868   2.521  -1.878  0.00  0.00    +0.000 C 
ATOM     23  H   UNL     1       7.279   3.295  -2.533  0.00  0.00    +0.000 HD
ATOM     24  H   UNL     1       7.403   1.587  -2.075  0.00  0.00    +0.000 HD
ATOM     25  H   UNL     1       7.049   2.827  -0.842  0.00  0.00    +0.000 HD
ENDBRANCH  10  22
ENDBRANCH   1  15
BRANCH   6  26
ATOM     26  C   UNL     1      -2.966  -1.256   1.261  0.00  0.00    +0.000 C 
ATOM     27  H   UNL     1      -3.067  -2.018   0.477  0.00  0.00    +0.000 HD
ATOM     28  H   UNL     1      -3.526  -0.367   0.947  0.00  0.00    +0.000 HD
BRANCH  26  29
ATOM     29  C   UNL     1      -3.542  -1.781   2.587  0.00  0.00    +0.000 C 
ATOM     30  H   UNL     1      -3.498  -0.986   3.339  0.00  0.00    +0.000 HD
ATOM     31  H   UNL     1      -2.902  -2.589   2.972  0.00  0.00    +0.000 HD
BRANCH  29  32
ATOM     32  C   UNL     1      -4.946  -2.268   2.450  0.00  0.00    +0.000 A 
ATOM     33  C   UNL     1      -6.116  -1.562   2.643  0.00  0.00    +0.000 A 
ATOM     34  C   UNL     1      -7.273  -2.373   2.462  0.00  0.00    +0.000 A 
ATOM     35  C   UNL     1      -6.949  -3.671   2.137  0.00  0.00    +0.000 A 
ATOM     36  S   UNL     1      -5.259  -3.904   2.041  0.00  0.00    +0.000 S 
ATOM     37  H   UNL     1      -6.143  -0.513   2.916  0.00  0.00    +0.000 HD
ATOM     38  H   UNL     1      -8.293  -2.030   2.572  0.00  0.00    +0.000 HD
ATOM     39  H   UNL     1      -7.624  -4.495   1.953  0.00  0.00    +0.000 HD
ENDBRANCH  29  32
ENDBRANCH  26  29
ENDBRANCH   6  26
BRANCH   7  40
ATOM     40  N   UNL     1       1.274  -0.837   1.486  0.00  0.00    +0.000 N 
ATOM     41  H   UNL     1       0.759  -1.385   2.166  0.00  0.00    +0.000 HD
ATOM     42  H   UNL     1       2.221  -1.152   1.349  0.00  0.00    +0.000 HD
ENDBRANCH   7  40
TORSDOF 6
