
 OpenBabel01112423123D

 42 43  0  0  1  0  0  0  0  0999 V2000
    3.0524    1.4077   -0.8062 C   0  0  0  0  0  0  0  0  0  0  0  0
    2.5704    0.1099   -0.1281 C   0  0  2  0  0  0  0  0  0  0  0  0
    1.0969    0.1424   -0.0795 O   0  0  0  0  0  0  0  0  0  0  0  0
    0.4176   -1.0409   -0.1151 C   0  0  0  0  0  0  0  0  0  0  0  0
    0.8372   -2.0674   -0.5935 O   0  0  0  0  0  0  0  0  0  0  0  0
   -0.9129   -0.9358    0.6133 C   0  0  0  0  0  0  0  0  0  0  0  0
   -1.5880    0.2425    0.5110 N   0  0  0  0  0  0  0  0  0  0  0  0
   -2.7114    0.3700    1.2535 C   0  0  0  0  0  0  0  0  0  0  0  0
   -3.4131    1.9431    1.1486 Cl  0  0  0  0  0  0  0  0  0  0  0  0
   -3.2586   -0.6355    2.0630 C   0  0  0  0  0  0  0  0  0  0  0  0
   -4.6858   -0.3893    3.0158 Cl  0  0  0  0  0  0  0  0  0  0  0  0
   -2.5930   -1.8712    2.1101 C   0  0  0  0  0  0  0  0  0  0  0  0
   -2.9894   -2.8608    3.0501 N   0  0  0  0  0  0  0  0  0  0  0  0
   -1.3753   -2.0059    1.3986 C   0  0  0  0  0  0  0  0  0  0  0  0
   -0.4787   -3.4797    1.6049 Cl  0  0  0  0  0  0  0  0  0  0  0  0
    3.0508   -0.0073    1.3571 C   0  0  0  0  0  0  0  0  0  0  0  0
    2.3291    0.4280    2.2594 O   0  0  0  0  0  0  0  0  0  0  0  0
    4.2674   -0.6430    1.6621 N   0  0  0  0  0  0  0  0  0  0  0  0
    4.5669   -0.9151    3.0778 C   0  0  0  0  0  0  0  0  0  0  0  0
    5.5464    0.0958    3.6776 C   0  0  0  0  0  0  0  0  0  0  0  0
    7.0087   -0.1197    3.2869 C   0  0  0  0  0  0  0  0  0  0  0  0
    7.2709   -0.1277    1.7851 C   0  0  0  0  0  0  0  0  0  0  0  0
    6.6600   -1.3472    1.0997 C   0  0  0  0  0  0  0  0  0  0  0  0
    5.2152   -1.1082    0.6528 C   0  0  0  0  0  0  0  0  0  0  0  0
    4.1101    1.3551   -1.0944 H   0  0  0  0  0  0  0  0  0  0  0  0
    2.9400    2.2811   -0.1516 H   0  0  0  0  0  0  0  0  0  0  0  0
    2.4877    1.6360   -1.7183 H   0  0  0  0  0  0  0  0  0  0  0  0
    2.9233   -0.7518   -0.7013 H   0  0  0  0  0  0  0  0  0  0  0  0
   -3.9723   -2.8327    3.3161 H   0  0  0  0  0  0  0  0  0  0  0  0
   -2.6485   -3.8002    2.8490 H   0  0  0  0  0  0  0  0  0  0  0  0
    4.9299   -1.9443    3.1855 H   0  0  0  0  0  0  0  0  0  0  0  0
    3.6399   -0.8679    3.6600 H   0  0  0  0  0  0  0  0  0  0  0  0
    5.4901    0.0214    4.7709 H   0  0  0  0  0  0  0  0  0  0  0  0
    5.2422    1.1145    3.4135 H   0  0  0  0  0  0  0  0  0  0  0  0
    7.3691   -1.0598    3.7228 H   0  0  0  0  0  0  0  0  0  0  0  0
    7.6085    0.6779    3.7418 H   0  0  0  0  0  0  0  0  0  0  0  0
    8.3567   -0.1479    1.6305 H   0  0  0  0  0  0  0  0  0  0  0  0
    6.9079    0.8002    1.3271 H   0  0  0  0  0  0  0  0  0  0  0  0
    6.7460   -2.2371    1.7378 H   0  0  0  0  0  0  0  0  0  0  0  0
    7.2476   -1.5676    0.1995 H   0  0  0  0  0  0  0  0  0  0  0  0
    4.8167   -2.0338    0.2225 H   0  0  0  0  0  0  0  0  0  0  0  0
    5.2434   -0.3561   -0.1380 H   0  0  0  0  0  0  0  0  0  0  0  0
  1 25  1  0  0  0  0
  1 26  1  0  0  0  0
  1 27  1  0  0  0  0
  2 16  1  0  0  0  0
  2  3  1  0  0  0  0
  2  1  1  0  0  0  0
  2 28  1  6  0  0  0
  3  4  1  0  0  0  0
  4  5  2  0  0  0  0
  4  6  1  0  0  0  0
  6  7  1  0  0  0  0
  6 14  2  0  0  0  0
  7  8  2  0  0  0  0
  8  9  1  0  0  0  0
  8 10  1  0  0  0  0
 10 11  1  0  0  0  0
 10 12  2  0  0  0  0
 12 13  1  0  0  0  0
 12 14  1  0  0  0  0
 13 29  1  0  0  0  0
 13 30  1  0  0  0  0
 14 15  1  0  0  0  0
 16 17  2  0  0  0  0
 16 18  1  0  0  0  0
 18 19  1  0  0  0  0
 18 24  1  0  0  0  0
 19 20  1  0  0  0  0
 19 31  1  0  0  0  0
 19 32  1  0  0  0  0
 20 21  1  0  0  0  0
 20 33  1  0  0  0  0
 20 34  1  0  0  0  0
 21 22  1  0  0  0  0
 21 35  1  0  0  0  0
 21 36  1  0  0  0  0
 22 23  1  0  0  0  0
 22 37  1  0  0  0  0
 22 38  1  0  0  0  0
 23 24  1  0  0  0  0
 23 39  1  0  0  0  0
 23 40  1  0  0  0  0
 24 41  1  0  0  0  0
 24 42  1  0  0  0  0
M  END
$$$$
