REMARK  Name = 
REMARK  7 active torsions:
REMARK  status: ('A' for Active; 'I' for Inactive)
REMARK    1  A    between atoms: C_1  and  C_2
REMARK    2  A    between atoms: C_5  and  N_6
REMARK    3  A    between atoms: N_6  and  C_7
REMARK    4  A    between atoms: N_12  and  C_13
REMARK    5  A    between atoms: C_13  and  C_14
REMARK    6  A    between atoms: C_19  and  N_20
REMARK    7  A    between atoms: C_21  and  C_22
REMARK                            x       y       z     vdW  Elec       q    Type
REMARK                         _______ _______ _______ _____ _____    ______ ____
ROOT
ATOM      1  C   UNL     1      -0.227   0.290  -0.198  0.00  0.00    +0.000 A 
ATOM      2  N   UNL     1      -0.765  -0.449  -1.175  0.00  0.00    +0.000 N 
ATOM      3  C   UNL     1      -0.800  -1.769  -1.085  0.00  0.00    +0.000 A 
ATOM      4  N   UNL     1      -0.388  -2.463  -0.018  0.00  0.00    +0.000 NA
ATOM      5  C   UNL     1       0.106  -1.754   1.016  0.00  0.00    +0.000 A 
ATOM      6  N   UNL     1       0.404  -2.423   2.207  0.00  0.00    +0.000 N 
ATOM      7  C   UNL     1       0.206  -0.344   0.983  0.00  0.00    +0.000 A 
ATOM      8  H   UNL     1      -1.131   0.030  -1.993  0.00  0.00    +0.000 HD
ATOM      9  H   UNL     1      -1.190  -2.323  -1.933  0.00  0.00    +0.000 HD
ATOM     10  H   UNL     1       1.355  -2.259   2.529  0.00  0.00    +0.000 HD
ENDROOT
BRANCH   6  11
ATOM     11  C   UNL     1       0.077  -3.852   2.248  0.00  0.00    +0.000 C 
ATOM     12  H   UNL     1       0.786  -4.414   1.628  0.00  0.00    +0.000 HD
ATOM     13  H   UNL     1      -0.927  -4.017   1.833  0.00  0.00    +0.000 HD
BRANCH  11  14
ATOM     14  C   UNL     1       0.064  -4.434   3.618  0.00  0.00    +0.000 A 
ATOM     15  C   UNL     1      -0.750  -5.362   4.235  0.00  0.00    +0.000 A 
ATOM     16  C   UNL     1      -0.265  -5.510   5.555  0.00  0.00    +0.000 A 
ATOM     17  C   UNL     1       0.823  -4.670   5.658  0.00  0.00    +0.000 A 
ATOM     18  O   UNL     1       1.039  -4.023   4.484  0.00  0.00    +0.000 OA
ATOM     19  H   UNL     1      -1.602  -5.863   3.790  0.00  0.00    +0.000 HD
ATOM     20  H   UNL     1      -0.655  -6.142   6.341  0.00  0.00    +0.000 HD
ATOM     21  H   UNL     1       1.511  -4.435   6.459  0.00  0.00    +0.000 HD
ENDBRANCH  11  14
ENDBRANCH   6  11
BRANCH   7  22
ATOM     22  N   UNL     1       0.911   0.370   1.985  0.00  0.00    +0.000 N 
ATOM     23  H   UNL     1       1.004  -0.173   2.846  0.00  0.00    +0.000 HD
ATOM     24  H   UNL     1       0.549   1.296   2.201  0.00  0.00    +0.000 HD
ENDBRANCH   7  22
BRANCH   1  25
ATOM     25  N   UNL     1      -0.200   1.690  -0.363  0.00  0.00    +0.000 N 
ATOM     26  H   UNL     1       0.501   2.090   0.268  0.00  0.00    +0.000 HD
BRANCH  25  30
ATOM     27  C   UNL     1       0.429   3.578  -4.109  0.00  0.00    +0.000 A 
ATOM     28  C   UNL     1       1.055   2.372  -3.810  0.00  0.00    +0.000 A 
ATOM     29  C   UNL     1       0.844   1.763  -2.575  0.00  0.00    +0.000 A 
ATOM     30  C   UNL     1      -0.032   2.324  -1.628  0.00  0.00    +0.000 A 
ATOM     31  C   UNL     1      -0.622   3.566  -1.896  0.00  0.00    +0.000 A 
ATOM     32  C   UNL     1      -0.399   4.172  -3.147  0.00  0.00    +0.000 A 
ATOM     33  H   UNL     1       1.732   1.909  -4.527  0.00  0.00    +0.000 HD
ATOM     34  H   UNL     1       1.403   0.855  -2.363  0.00  0.00    +0.000 HD
ATOM     35  H   UNL     1      -0.867   5.132  -3.371  0.00  0.00    +0.000 HD
BRANCH  27  36
ATOM     36  C   UNL     1       0.656   4.250  -5.431  0.00  0.00    +0.000 C 
ATOM     37  H   UNL     1       1.361   3.684  -6.049  0.00  0.00    +0.000 HD
ATOM     38  H   UNL     1       1.072   5.251  -5.281  0.00  0.00    +0.000 HD
ATOM     39  H   UNL     1      -0.287   4.325  -5.981  0.00  0.00    +0.000 HD
ENDBRANCH  27  36
BRANCH  31  40
ATOM     40  C   UNL     1      -1.521   4.288  -0.924  0.00  0.00    +0.000 C 
ATOM     41  H   UNL     1      -1.555   3.807   0.057  0.00  0.00    +0.000 HD
ATOM     42  H   UNL     1      -2.543   4.327  -1.317  0.00  0.00    +0.000 HD
ATOM     43  H   UNL     1      -1.161   5.312  -0.772  0.00  0.00    +0.000 HD
ENDBRANCH  31  40
ENDBRANCH  25  30
ENDBRANCH   1  25
TORSDOF 7
