
 OpenBabel01112423143D

 53 55  0  0  1  0  0  0  0  0999 V2000
    3.1847    1.5994   -0.0916 C   0  0  0  0  0  0  0  0  0  0  0  0
    2.6640    0.1711    0.0045 C   0  0  1  0  0  0  0  0  0  0  0  0
    3.0609   -0.6917   -1.2001 C   0  0  0  0  0  0  0  0  0  0  0  0
    2.4724   -2.1264   -1.1417 C   0  0  0  0  0  0  0  0  0  0  0  0
    0.9667   -2.1270   -1.4767 C   0  0  0  0  0  0  0  0  0  0  0  0
    3.1586   -2.9760   -2.2381 C   0  0  0  0  0  0  0  0  0  0  0  0
    2.7278   -2.7710    0.2515 C   0  0  0  0  0  0  0  0  0  0  0  0
    2.4606   -1.8718    1.4781 C   0  0  2  0  0  0  0  0  0  0  0  0
    3.1095   -0.4947    1.3199 C   0  0  0  0  0  0  0  0  0  0  0  0
    2.8687   -2.5588    2.6965 N   0  0  0  0  0  0  0  0  0  0  0  0
    1.8085   -2.8582    3.5249 C   0  0  0  0  0  0  0  0  0  0  0  0
    1.9020   -3.2496    4.6725 O   0  0  0  0  0  0  0  0  0  0  0  0
    0.6492   -2.5186    2.8882 N   0  0  0  0  0  0  0  0  0  0  0  0
   -0.6425   -2.4848    3.5302 C   0  0  0  0  0  0  0  0  0  0  0  0
   -1.3500   -3.8215    3.3808 C   0  0  0  0  0  0  0  0  0  0  0  0
   -2.0039   -4.0403    2.3625 O   0  0  0  0  0  0  0  0  0  0  0  0
   -1.1764   -4.7175    4.4375 N   0  0  0  0  0  0  0  0  0  0  0  0
   -1.7464   -6.0137    4.4769 C   0  0  0  0  0  0  0  0  0  0  0  0
   -2.1867   -6.6578    3.3156 C   0  0  0  0  0  0  0  0  0  0  0  0
   -2.8776   -7.8644    3.3708 C   0  0  0  0  0  0  0  0  0  0  0  0
   -3.1175   -8.4915    4.5946 C   0  0  0  0  0  0  0  0  0  0  0  0
   -3.9196   -9.7686    4.6399 C   0  0  0  0  0  0  0  0  0  0  0  0
   -4.3472  -10.1852    3.4135 F   0  0  0  0  0  0  0  0  0  0  0  0
   -3.2159  -10.8115    5.1597 F   0  0  0  0  0  0  0  0  0  0  0  0
   -5.0425   -9.6547    5.4016 F   0  0  0  0  0  0  0  0  0  0  0  0
   -2.6027   -7.8951    5.7578 C   0  0  0  0  0  0  0  0  0  0  0  0
   -1.9119   -6.6725    5.7024 C   0  0  0  0  0  0  0  0  0  0  0  0
    0.9770   -1.6766    1.8690 C   0  0  0  0  0  0  0  0  0  0  0  0
    0.2200   -0.8159    1.4321 O   0  0  0  0  0  0  0  0  0  0  0  0
    2.8137    2.0800   -1.0031 H   0  0  0  0  0  0  0  0  0  0  0  0
    4.2769    1.6379   -0.0934 H   0  0  0  0  0  0  0  0  0  0  0  0
    2.8187    2.1879    0.7581 H   0  0  0  0  0  0  0  0  0  0  0  0
    1.5776    0.2752   -0.0139 H   0  0  0  0  0  0  0  0  0  0  0  0
    4.1570   -0.7461   -1.2468 H   0  0  0  0  0  0  0  0  0  0  0  0
    2.7372   -0.2000   -2.1271 H   0  0  0  0  0  0  0  0  0  0  0  0
    0.7993   -1.9058   -2.5376 H   0  0  0  0  0  0  0  0  0  0  0  0
    0.4024   -1.3841   -0.9137 H   0  0  0  0  0  0  0  0  0  0  0  0
    0.5195   -3.1077   -1.2769 H   0  0  0  0  0  0  0  0  0  0  0  0
    2.9637   -2.5622   -3.2354 H   0  0  0  0  0  0  0  0  0  0  0  0
    2.7902   -4.0078   -2.2312 H   0  0  0  0  0  0  0  0  0  0  0  0
    4.2452   -3.0051   -2.1055 H   0  0  0  0  0  0  0  0  0  0  0  0
    3.7912   -3.0629    0.2879 H   0  0  0  0  0  0  0  0  0  0  0  0
    2.1704   -3.7137    0.3341 H   0  0  0  0  0  0  0  0  0  0  0  0
    4.2044   -0.5886    1.3431 H   0  0  0  0  0  0  0  0  0  0  0  0
    2.8402    0.1457    2.1695 H   0  0  0  0  0  0  0  0  0  0  0  0
    3.8190   -2.6820    3.0231 H   0  0  0  0  0  0  0  0  0  0  0  0
   -1.2836   -1.7398    3.0414 H   0  0  0  0  0  0  0  0  0  0  0  0
   -0.5458   -2.1984    4.5827 H   0  0  0  0  0  0  0  0  0  0  0  0
   -0.7455   -4.3707    5.2866 H   0  0  0  0  0  0  0  0  0  0  0  0
   -2.0081   -6.2369    2.3321 H   0  0  0  0  0  0  0  0  0  0  0  0
   -3.2459   -8.2937    2.4404 H   0  0  0  0  0  0  0  0  0  0  0  0
   -2.7647   -8.3774    6.7251 H   0  0  0  0  0  0  0  0  0  0  0  0
   -1.5579   -6.2305    6.6294 H   0  0  0  0  0  0  0  0  0  0  0  0
  1 30  1  0  0  0  0
  1 31  1  0  0  0  0
  1 32  1  0  0  0  0
  2  3  1  0  0  0  0
  2  9  1  0  0  0  0
  2  1  1  0  0  0  0
  2 33  1  1  0  0  0
  3  4  1  0  0  0  0
  3 34  1  0  0  0  0
  3 35  1  0  0  0  0
  4  5  1  0  0  0  0
  4  6  1  0  0  0  0
  4  7  1  0  0  0  0
  5 36  1  0  0  0  0
  5 37  1  0  0  0  0
  5 38  1  0  0  0  0
  6 39  1  0  0  0  0
  6 40  1  0  0  0  0
  6 41  1  0  0  0  0
  7  8  1  0  0  0  0
  7 42  1  0  0  0  0
  7 43  1  0  0  0  0
  8  9  1  0  0  0  0
  8 10  1  0  0  0  0
  8 28  1  1  0  0  0
  9 44  1  0  0  0  0
  9 45  1  0  0  0  0
 10 11  1  0  0  0  0
 10 46  1  0  0  0  0
 11 12  2  0  0  0  0
 11 13  1  0  0  0  0
 13 14  1  0  0  0  0
 13 28  1  0  0  0  0
 14 15  1  0  0  0  0
 14 47  1  0  0  0  0
 14 48  1  0  0  0  0
 15 16  2  0  0  0  0
 15 17  1  0  0  0  0
 17 18  1  0  0  0  0
 17 49  1  0  0  0  0
 18 19  1  0  0  0  0
 18 27  2  0  0  0  0
 19 20  2  0  0  0  0
 19 50  1  0  0  0  0
 20 21  1  0  0  0  0
 20 51  1  0  0  0  0
 21 22  1  0  0  0  0
 21 26  2  0  0  0  0
 22 23  1  0  0  0  0
 22 24  1  0  0  0  0
 22 25  1  0  0  0  0
 26 27  1  0  0  0  0
 26 52  1  0  0  0  0
 27 53  1  0  0  0  0
 28 29  2  0  0  0  0
M  END
$$$$
