MODEL 1
REMARK VINA RESULT:    -7.588      0.000      0.000
REMARK INTER + INTRA:         -11.254
REMARK INTER:                 -10.471
REMARK INTRA:                  -0.783
REMARK UNBOUND:                -0.783
REMARK  Name = 
REMARK  8 active torsions:
REMARK  status: ('A' for Active; 'I' for Inactive)
REMARK    1  A    between atoms: C_1  and  O_2
REMARK    2  A    between atoms: O_2  and  C_3
REMARK    3  A    between atoms: C_6  and  C_7
REMARK    4  A    between atoms: C_8  and  C_9
REMARK    5  A    between atoms: C_11  and  N_12
REMARK    6  A    between atoms: C_19  and  C_20
REMARK    7  A    between atoms: C_28  and  O_29
REMARK    8  A    between atoms: O_29  and  C_30
REMARK                            x       y       z     vdW  Elec       q    Type
REMARK                         _______ _______ _______ _____ _____    ______ ____
ROOT
ATOM      1  C   UNL     1      -8.560  -5.685  17.988  0.00  0.00    +0.000 C 
ATOM      2  C   UNL     1      -7.686  -5.228  19.149  0.00  0.00    +0.000 C 
ATOM      3  C   UNL     1      -8.098  -4.278  20.015  0.00  0.00    +0.000 C 
ATOM      4  O   UNL     1      -9.355  -3.696  19.910  0.00  0.00    +0.000 OA
ATOM      5  C   UNL     1     -10.184  -3.997  18.842  0.00  0.00    +0.000 C 
ATOM      6  C   UNL     1      -9.858  -4.921  17.922  0.00  0.00    +0.000 C 
ATOM      7  C   UNL     1     -10.757  -5.110  16.744  0.00  0.00    +0.000 C 
ATOM      8  O   UNL     1     -10.475  -5.911  15.855  0.00  0.00    +0.000 OA
ATOM      9  C   UNL     1     -12.046  -4.320  16.692  0.00  0.00    +0.000 C 
ATOM     10  C   UNL     1     -11.846  -2.914  17.279  0.00  0.00    +0.000 C 
ATOM     11  C   UNL     1     -11.383  -3.091  18.738  0.00  0.00    +0.000 C 
ATOM     12  H   UNL     1      -8.004  -5.414  17.077  0.00  0.00    +0.000 HD
ATOM     13  H   UNL     1     -12.804  -4.873  17.260  0.00  0.00    +0.000 HD
ATOM     14  H   UNL     1     -12.389  -4.279  15.652  0.00  0.00    +0.000 HD
ATOM     15  H   UNL     1     -12.823  -2.410  17.312  0.00  0.00    +0.000 HD
ATOM     16  H   UNL     1     -12.194  -3.530  19.335  0.00  0.00    +0.000 HD
ATOM     17  H   UNL     1     -11.170  -2.113  19.187  0.00  0.00    +0.000 HD
ENDROOT
BRANCH  10  18
ATOM     18  C   UNL     1     -10.954  -2.040  16.390  0.00  0.00    +0.000 A 
ATOM     19  C   UNL     1     -11.220  -1.970  15.011  0.00  0.00    +0.000 A 
ATOM     20  C   UNL     1     -10.421  -1.204  14.157  0.00  0.00    +0.000 A 
ATOM     21  C   UNL     1      -9.347  -0.482  14.666  0.00  0.00    +0.000 A 
ATOM     22  C   UNL     1      -9.076  -0.522  16.027  0.00  0.00    +0.000 A 
ATOM     23  C   UNL     1      -9.874  -1.287  16.882  0.00  0.00    +0.000 A 
ATOM     24  H   UNL     1     -12.056  -2.517  14.580  0.00  0.00    +0.000 HD
ATOM     25  H   UNL     1     -10.640  -1.174  13.093  0.00  0.00    +0.000 HD
ATOM     26  H   UNL     1      -8.725   0.113  14.002  0.00  0.00    +0.000 HD
ATOM     27  H   UNL     1      -8.239   0.045  16.432  0.00  0.00    +0.000 HD
ATOM     28  H   UNL     1      -9.615  -1.272  17.937  0.00  0.00    +0.000 HD
ENDBRANCH  10  18
BRANCH   1  32
ATOM     29  C   UNL     1      -9.126 -10.001  18.091  0.00  0.00    +0.000 A 
ATOM     30  C   UNL     1      -9.214  -9.230  19.256  0.00  0.00    +0.000 A 
ATOM     31  C   UNL     1      -9.042  -7.844  19.207  0.00  0.00    +0.000 A 
ATOM     32  C   UNL     1      -8.754  -7.199  17.996  0.00  0.00    +0.000 A 
ATOM     33  C   UNL     1      -8.658  -7.971  16.834  0.00  0.00    +0.000 A 
ATOM     34  C   UNL     1      -8.871  -9.356  16.869  0.00  0.00    +0.000 A 
ATOM     35  H   UNL     1      -9.381  -9.676  20.228  0.00  0.00    +0.000 HD
ATOM     36  H   UNL     1      -9.090  -7.282  20.136  0.00  0.00    +0.000 HD
ATOM     37  H   UNL     1      -8.434  -7.504  15.877  0.00  0.00    +0.000 HD
BRANCH  29  38
ATOM     38  O   UNL     1      -9.199 -11.369  18.093  0.00  0.00    +0.000 OA
BRANCH  38  39
ATOM     39  C   UNL     1      -8.099 -12.075  18.653  0.00  0.00    +0.000 C 
ATOM     40  H   UNL     1      -8.248 -12.111  19.737  0.00  0.00    +0.000 HD
ATOM     41  H   UNL     1      -7.159 -11.547  18.460  0.00  0.00    +0.000 HD
ATOM     42  H   UNL     1      -8.056 -13.108  18.300  0.00  0.00    +0.000 HD
ENDBRANCH  38  39
ENDBRANCH  29  38
BRANCH  34  43
ATOM     43  O   UNL     1      -8.761  -9.966  15.643  0.00  0.00    +0.000 OA
BRANCH  43  44
ATOM     44  C   UNL     1      -9.959  -9.974  14.870  0.00  0.00    +0.000 C 
ATOM     45  H   UNL     1     -10.574 -10.807  15.223  0.00  0.00    +0.000 HD
ATOM     46  H   UNL     1      -9.765 -10.135  13.803  0.00  0.00    +0.000 HD
ATOM     47  H   UNL     1     -10.533  -9.058  15.036  0.00  0.00    +0.000 HD
ENDBRANCH  43  44
ENDBRANCH  34  43
ENDBRANCH   1  32
BRANCH   3  48
ATOM     48  N   UNL     1      -7.367  -3.775  21.065  0.00  0.00    +0.000 N 
ATOM     49  H   UNL     1      -6.806  -2.951  20.857  0.00  0.00    +0.000 HD
ATOM     50  H   UNL     1      -6.852  -4.498  21.562  0.00  0.00    +0.000 HD
ENDBRANCH   3  48
BRANCH   2  51
ATOM     51  C   UNL     1      -6.398  -5.825  19.287  0.00  0.00    +0.000 C 
ATOM     52  N   UNL     1      -5.338  -6.281  19.414  0.00  0.00    +0.000 NA
ENDBRANCH   2  51
TORSDOF 8
ENDMDL
MODEL 2
REMARK VINA RESULT:    -7.298      1.450      2.418
REMARK INTER + INTRA:         -10.854
REMARK INTER:                  -9.854
REMARK INTRA:                  -1.001
REMARK UNBOUND:                -0.783
REMARK  Name = 
REMARK  8 active torsions:
REMARK  status: ('A' for Active; 'I' for Inactive)
REMARK    1  A    between atoms: C_1  and  O_2
REMARK    2  A    between atoms: O_2  and  C_3
REMARK    3  A    between atoms: C_6  and  C_7
REMARK    4  A    between atoms: C_8  and  C_9
REMARK    5  A    between atoms: C_11  and  N_12
REMARK    6  A    between atoms: C_19  and  C_20
REMARK    7  A    between atoms: C_28  and  O_29
REMARK    8  A    between atoms: O_29  and  C_30
REMARK                            x       y       z     vdW  Elec       q    Type
REMARK                         _______ _______ _______ _____ _____    ______ ____
ROOT
ATOM      1  C   UNL     1      -8.095  -4.887  18.774  0.00  0.00    +0.000 C 
ATOM      2  C   UNL     1      -7.023  -4.733  19.845  0.00  0.00    +0.000 C 
ATOM      3  C   UNL     1      -7.207  -3.944  20.925  0.00  0.00    +0.000 C 
ATOM      4  O   UNL     1      -8.398  -3.260  21.130  0.00  0.00    +0.000 OA
ATOM      5  C   UNL     1      -9.397  -3.282  20.170  0.00  0.00    +0.000 C 
ATOM      6  C   UNL     1      -9.302  -4.029  19.056  0.00  0.00    +0.000 C 
ATOM      7  C   UNL     1     -10.374  -3.914  18.021  0.00  0.00    +0.000 C 
ATOM      8  O   UNL     1     -10.306  -4.543  16.968  0.00  0.00    +0.000 OA
ATOM      9  C   UNL     1     -11.568  -3.034  18.320  0.00  0.00    +0.000 C 
ATOM     10  C   UNL     1     -11.142  -1.791  19.115  0.00  0.00    +0.000 C 
ATOM     11  C   UNL     1     -10.498  -2.286  20.425  0.00  0.00    +0.000 C 
ATOM     12  H   UNL     1      -7.648  -4.484  17.852  0.00  0.00    +0.000 HD
ATOM     13  H   UNL     1     -12.291  -3.630  18.890  0.00  0.00    +0.000 HD
ATOM     14  H   UNL     1     -12.048  -2.765  17.373  0.00  0.00    +0.000 HD
ATOM     15  H   UNL     1     -12.046  -1.231  19.394  0.00  0.00    +0.000 HD
ATOM     16  H   UNL     1     -11.258  -2.771  21.052  0.00  0.00    +0.000 HD
ATOM     17  H   UNL     1     -10.123  -1.434  21.005  0.00  0.00    +0.000 HD
ENDROOT
BRANCH  10  18
ATOM     18  C   UNL     1     -10.298  -0.829  18.271  0.00  0.00    +0.000 A 
ATOM     19  C   UNL     1     -10.504  -0.777  16.881  0.00  0.00    +0.000 A 
ATOM     20  C   UNL     1      -9.744   0.069  16.067  0.00  0.00    +0.000 A 
ATOM     21  C   UNL     1      -8.771   0.888  16.627  0.00  0.00    +0.000 A 
ATOM     22  C   UNL     1      -8.562   0.867  18.000  0.00  0.00    +0.000 A 
ATOM     23  C   UNL     1      -9.321   0.023  18.815  0.00  0.00    +0.000 A 
ATOM     24  H   UNL     1     -11.261  -1.400  16.409  0.00  0.00    +0.000 HD
ATOM     25  H   UNL     1      -9.914   0.084  14.994  0.00  0.00    +0.000 HD
ATOM     26  H   UNL     1      -8.179   1.545  15.995  0.00  0.00    +0.000 HD
ATOM     27  H   UNL     1      -7.805   1.510  18.445  0.00  0.00    +0.000 HD
ATOM     28  H   UNL     1      -9.115   0.056  19.881  0.00  0.00    +0.000 HD
ENDBRANCH  10  18
BRANCH   1  32
ATOM     29  C   UNL     1      -9.074  -9.060  18.015  0.00  0.00    +0.000 A 
ATOM     30  C   UNL     1      -8.692  -8.204  16.975  0.00  0.00    +0.000 A 
ATOM     31  C   UNL     1      -8.369  -6.869  17.235  0.00  0.00    +0.000 A 
ATOM     32  C   UNL     1      -8.443  -6.353  18.536  0.00  0.00    +0.000 A 
ATOM     33  C   UNL     1      -8.831  -7.207  19.573  0.00  0.00    +0.000 A 
ATOM     34  C   UNL     1      -9.117  -8.557  19.326  0.00  0.00    +0.000 A 
ATOM     35  H   UNL     1      -8.669  -8.530  15.943  0.00  0.00    +0.000 HD
ATOM     36  H   UNL     1      -8.104  -6.228  16.399  0.00  0.00    +0.000 HD
ATOM     37  H   UNL     1      -8.902  -6.840  20.595  0.00  0.00    +0.000 HD
BRANCH  29  38
ATOM     38  O   UNL     1      -9.485 -10.351  17.807  0.00  0.00    +0.000 OA
BRANCH  38  39
ATOM     39  C   UNL     1      -9.623 -10.777  16.457  0.00  0.00    +0.000 C 
ATOM     40  H   UNL     1      -9.974 -11.814  16.474  0.00  0.00    +0.000 HD
ATOM     41  H   UNL     1      -8.657 -10.756  15.942  0.00  0.00    +0.000 HD
ATOM     42  H   UNL     1     -10.373 -10.191  15.920  0.00  0.00    +0.000 HD
ENDBRANCH  38  39
ENDBRANCH  29  38
BRANCH  34  43
ATOM     43  O   UNL     1      -9.463  -9.266  20.451  0.00  0.00    +0.000 OA
BRANCH  43  44
ATOM     44  C   UNL     1      -8.363  -9.779  21.197  0.00  0.00    +0.000 C 
ATOM     45  H   UNL     1      -8.111 -10.760  20.783  0.00  0.00    +0.000 HD
ATOM     46  H   UNL     1      -8.608  -9.920  22.256  0.00  0.00    +0.000 HD
ATOM     47  H   UNL     1      -7.482  -9.143  21.074  0.00  0.00    +0.000 HD
ENDBRANCH  43  44
ENDBRANCH  34  43
ENDBRANCH   1  32
BRANCH   3  48
ATOM     48  N   UNL     1      -6.287  -3.714  21.920  0.00  0.00    +0.000 N 
ATOM     49  H   UNL     1      -6.100  -4.501  22.539  0.00  0.00    +0.000 HD
ATOM     50  H   UNL     1      -6.459  -2.843  22.416  0.00  0.00    +0.000 HD
ENDBRANCH   3  48
BRANCH   2  51
ATOM     51  C   UNL     1      -5.797  -5.441  19.666  0.00  0.00    +0.000 C 
ATOM     52  N   UNL     1      -4.783  -5.986  19.515  0.00  0.00    +0.000 NA
ENDBRANCH   2  51
TORSDOF 8
ENDMDL
MODEL 3
REMARK VINA RESULT:    -7.077      4.408      6.427
REMARK INTER + INTRA:         -10.549
REMARK INTER:                  -9.486
REMARK INTRA:                  -1.063
REMARK UNBOUND:                -0.783
REMARK  Name = 
REMARK  8 active torsions:
REMARK  status: ('A' for Active; 'I' for Inactive)
REMARK    1  A    between atoms: C_1  and  O_2
REMARK    2  A    between atoms: O_2  and  C_3
REMARK    3  A    between atoms: C_6  and  C_7
REMARK    4  A    between atoms: C_8  and  C_9
REMARK    5  A    between atoms: C_11  and  N_12
REMARK    6  A    between atoms: C_19  and  C_20
REMARK    7  A    between atoms: C_28  and  O_29
REMARK    8  A    between atoms: O_29  and  C_30
REMARK                            x       y       z     vdW  Elec       q    Type
REMARK                         _______ _______ _______ _____ _____    ______ ____
ROOT
ATOM      1  C   UNL     1      -9.022  -2.038  22.576  0.00  0.00    +0.000 C 
ATOM      2  C   UNL     1      -9.590  -2.694  23.826  0.00  0.00    +0.000 C 
ATOM      3  C   UNL     1     -10.918  -2.738  24.064  0.00  0.00    +0.000 C 
ATOM      4  O   UNL     1     -11.835  -2.216  23.160  0.00  0.00    +0.000 OA
ATOM      5  C   UNL     1     -11.403  -1.534  22.034  0.00  0.00    +0.000 C 
ATOM      6  C   UNL     1     -10.101  -1.427  21.717  0.00  0.00    +0.000 C 
ATOM      7  C   UNL     1      -9.713  -0.586  20.546  0.00  0.00    +0.000 C 
ATOM      8  O   UNL     1      -8.533  -0.423  20.247  0.00  0.00    +0.000 OA
ATOM      9  C   UNL     1     -10.814   0.029  19.709  0.00  0.00    +0.000 C 
ATOM     10  C   UNL     1     -11.995   0.455  20.594  0.00  0.00    +0.000 C 
ATOM     11  C   UNL     1     -12.508  -0.811  21.309  0.00  0.00    +0.000 C 
ATOM     12  H   UNL     1      -8.412  -1.194  22.937  0.00  0.00    +0.000 HD
ATOM     13  H   UNL     1     -11.132  -0.715  18.969  0.00  0.00    +0.000 HD
ATOM     14  H   UNL     1     -10.398   0.878  19.154  0.00  0.00    +0.000 HD
ATOM     15  H   UNL     1     -12.808   0.805  19.942  0.00  0.00    +0.000 HD
ATOM     16  H   UNL     1     -12.943  -1.502  20.575  0.00  0.00    +0.000 HD
ATOM     17  H   UNL     1     -13.319  -0.550  22.000  0.00  0.00    +0.000 HD
ENDROOT
BRANCH  10  18
ATOM     18  C   UNL     1     -11.642   1.642  21.496  0.00  0.00    +0.000 A 
ATOM     19  C   UNL     1     -12.394   1.862  22.664  0.00  0.00    +0.000 A 
ATOM     20  C   UNL     1     -12.124   2.944  23.507  0.00  0.00    +0.000 A 
ATOM     21  C   UNL     1     -11.089   3.822  23.207  0.00  0.00    +0.000 A 
ATOM     22  C   UNL     1     -10.321   3.615  22.068  0.00  0.00    +0.000 A 
ATOM     23  C   UNL     1     -10.590   2.533  21.225  0.00  0.00    +0.000 A 
ATOM     24  H   UNL     1     -13.208   1.191  22.933  0.00  0.00    +0.000 HD
ATOM     25  H   UNL     1     -12.726   3.100  24.399  0.00  0.00    +0.000 HD
ATOM     26  H   UNL     1     -10.879   4.664  23.861  0.00  0.00    +0.000 HD
ATOM     27  H   UNL     1      -9.506   4.296  21.830  0.00  0.00    +0.000 HD
ATOM     28  H   UNL     1      -9.950   2.421  20.354  0.00  0.00    +0.000 HD
ENDBRANCH  10  18
BRANCH   1  32
ATOM     29  C   UNL     1      -6.359  -4.726  20.422  0.00  0.00    +0.000 A 
ATOM     30  C   UNL     1      -5.867  -3.829  21.378  0.00  0.00    +0.000 A 
ATOM     31  C   UNL     1      -6.734  -2.980  22.070  0.00  0.00    +0.000 A 
ATOM     32  C   UNL     1      -8.111  -2.991  21.807  0.00  0.00    +0.000 A 
ATOM     33  C   UNL     1      -8.601  -3.881  20.847  0.00  0.00    +0.000 A 
ATOM     34  C   UNL     1      -7.742  -4.765  20.178  0.00  0.00    +0.000 A 
ATOM     35  H   UNL     1      -4.809  -3.737  21.586  0.00  0.00    +0.000 HD
ATOM     36  H   UNL     1      -6.312  -2.278  22.785  0.00  0.00    +0.000 HD
ATOM     37  H   UNL     1      -9.664  -3.915  20.615  0.00  0.00    +0.000 HD
BRANCH  29  38
ATOM     38  O   UNL     1      -5.548  -5.518  19.653  0.00  0.00    +0.000 OA
BRANCH  38  39
ATOM     39  C   UNL     1      -4.240  -5.778  20.147  0.00  0.00    +0.000 C 
ATOM     40  H   UNL     1      -4.117  -5.202  21.070  0.00  0.00    +0.000 HD
ATOM     41  H   UNL     1      -3.480  -5.441  19.435  0.00  0.00    +0.000 HD
ATOM     42  H   UNL     1      -4.105  -6.832  20.405  0.00  0.00    +0.000 HD
ENDBRANCH  38  39
ENDBRANCH  29  38
BRANCH  34  43
ATOM     43  O   UNL     1      -8.380  -5.587  19.282  0.00  0.00    +0.000 OA
BRANCH  43  44
ATOM     44  C   UNL     1      -8.662  -6.897  19.768  0.00  0.00    +0.000 C 
ATOM     45  H   UNL     1      -8.594  -7.586  18.920  0.00  0.00    +0.000 HD
ATOM     46  H   UNL     1      -9.674  -6.980  20.180  0.00  0.00    +0.000 HD
ATOM     47  H   UNL     1      -7.909  -7.210  20.496  0.00  0.00    +0.000 HD
ENDBRANCH  43  44
ENDBRANCH  34  43
ENDBRANCH   1  32
BRANCH   3  48
ATOM     48  N   UNL     1     -11.519  -3.272  25.179  0.00  0.00    +0.000 N 
ATOM     49  H   UNL     1     -11.081  -4.110  25.557  0.00  0.00    +0.000 HD
ATOM     50  H   UNL     1     -12.527  -3.357  25.074  0.00  0.00    +0.000 HD
ENDBRANCH   3  48
BRANCH   2  51
ATOM     51  C   UNL     1      -8.668  -3.253  24.761  0.00  0.00    +0.000 C 
ATOM     52  N   UNL     1      -7.927  -3.740  25.510  0.00  0.00    +0.000 NA
ENDBRANCH   2  51
TORSDOF 8
ENDMDL
MODEL 4
REMARK VINA RESULT:    -6.939      2.687      7.299
REMARK INTER + INTRA:         -10.359
REMARK INTER:                 -10.626
REMARK INTRA:                   0.267
REMARK UNBOUND:                -0.783
REMARK  Name = 
REMARK  8 active torsions:
REMARK  status: ('A' for Active; 'I' for Inactive)
REMARK    1  A    between atoms: C_1  and  O_2
REMARK    2  A    between atoms: O_2  and  C_3
REMARK    3  A    between atoms: C_6  and  C_7
REMARK    4  A    between atoms: C_8  and  C_9
REMARK    5  A    between atoms: C_11  and  N_12
REMARK    6  A    between atoms: C_19  and  C_20
REMARK    7  A    between atoms: C_28  and  O_29
REMARK    8  A    between atoms: O_29  and  C_30
REMARK                            x       y       z     vdW  Elec       q    Type
REMARK                         _______ _______ _______ _____ _____    ______ ____
ROOT
ATOM      1  C   UNL     1      -8.157  -5.094  19.874  0.00  0.00    +0.000 C 
ATOM      2  C   UNL     1      -6.656  -4.918  20.061  0.00  0.00    +0.000 C 
ATOM      3  C   UNL     1      -5.772  -5.329  19.128  0.00  0.00    +0.000 C 
ATOM      4  O   UNL     1      -6.191  -5.902  17.933  0.00  0.00    +0.000 OA
ATOM      5  C   UNL     1      -7.532  -6.169  17.713  0.00  0.00    +0.000 C 
ATOM      6  C   UNL     1      -8.487  -5.808  18.587  0.00  0.00    +0.000 C 
ATOM      7  C   UNL     1      -9.897  -6.227  18.325  0.00  0.00    +0.000 C 
ATOM      8  O   UNL     1     -10.795  -5.958  19.121  0.00  0.00    +0.000 OA
ATOM      9  C   UNL     1     -10.200  -6.956  17.035  0.00  0.00    +0.000 C 
ATOM     10  C   UNL     1      -9.045  -7.894  16.657  0.00  0.00    +0.000 C 
ATOM     11  C   UNL     1      -7.783  -7.023  16.497  0.00  0.00    +0.000 C 
ATOM     12  H   UNL     1      -8.477  -5.770  20.683  0.00  0.00    +0.000 HD
ATOM     13  H   UNL     1     -10.361  -6.205  16.253  0.00  0.00    +0.000 HD
ATOM     14  H   UNL     1     -11.142  -7.502  17.156  0.00  0.00    +0.000 HD
ATOM     15  H   UNL     1      -9.260  -8.329  15.670  0.00  0.00    +0.000 HD
ATOM     16  H   UNL     1      -7.898  -6.358  15.631  0.00  0.00    +0.000 HD
ATOM     17  H   UNL     1      -6.913  -7.656  16.283  0.00  0.00    +0.000 HD
ENDROOT
BRANCH  10  18
ATOM     18  C   UNL     1      -8.927  -9.081  17.619  0.00  0.00    +0.000 A 
ATOM     19  C   UNL     1      -9.042 -10.388  17.113  0.00  0.00    +0.000 A 
ATOM     20  C   UNL     1      -8.963 -11.501  17.954  0.00  0.00    +0.000 A 
ATOM     21  C   UNL     1      -8.755 -11.332  19.319  0.00  0.00    +0.000 A 
ATOM     22  C   UNL     1      -8.620 -10.052  19.840  0.00  0.00    +0.000 A 
ATOM     23  C   UNL     1      -8.698  -8.938  18.999  0.00  0.00    +0.000 A 
ATOM     24  H   UNL     1      -9.199 -10.558  16.049  0.00  0.00    +0.000 HD
ATOM     25  H   UNL     1      -9.066 -12.501  17.541  0.00  0.00    +0.000 HD
ATOM     26  H   UNL     1      -8.695 -12.197  19.974  0.00  0.00    +0.000 HD
ATOM     27  H   UNL     1      -8.453  -9.913  20.906  0.00  0.00    +0.000 HD
ATOM     28  H   UNL     1      -8.579  -7.964  19.465  0.00  0.00    +0.000 HD
ENDBRANCH  10  18
BRANCH   1  32
ATOM     29  C   UNL     1     -10.284  -1.314  20.250  0.00  0.00    +0.000 A 
ATOM     30  C   UNL     1     -10.009  -1.870  18.995  0.00  0.00    +0.000 A 
ATOM     31  C   UNL     1      -9.336  -3.090  18.890  0.00  0.00    +0.000 A 
ATOM     32  C   UNL     1      -8.901  -3.771  20.034  0.00  0.00    +0.000 A 
ATOM     33  C   UNL     1      -9.168  -3.211  21.287  0.00  0.00    +0.000 A 
ATOM     34  C   UNL     1      -9.879  -2.008  21.402  0.00  0.00    +0.000 A 
ATOM     35  H   UNL     1     -10.273  -1.366  18.074  0.00  0.00    +0.000 HD
ATOM     36  H   UNL     1      -9.117  -3.477  17.898  0.00  0.00    +0.000 HD
ATOM     37  H   UNL     1      -8.842  -3.711  22.197  0.00  0.00    +0.000 HD
BRANCH  29  38
ATOM     38  O   UNL     1     -10.861  -0.081  20.411  0.00  0.00    +0.000 OA
BRANCH  38  39
ATOM     39  C   UNL     1     -11.549   0.462  19.292  0.00  0.00    +0.000 C 
ATOM     40  H   UNL     1     -11.635  -0.331  18.542  0.00  0.00    +0.000 HD
ATOM     41  H   UNL     1     -10.981   1.285  18.848  0.00  0.00    +0.000 HD
ATOM     42  H   UNL     1     -12.565   0.773  19.550  0.00  0.00    +0.000 HD
ENDBRANCH  38  39
ENDBRANCH  29  38
BRANCH  34  43
ATOM     43  O   UNL     1     -10.077  -1.602  22.700  0.00  0.00    +0.000 OA
BRANCH  43  44
ATOM     44  C   UNL     1     -11.289  -2.060  23.292  0.00  0.00    +0.000 C 
ATOM     45  H   UNL     1     -12.060  -2.053  22.515  0.00  0.00    +0.000 HD
ATOM     46  H   UNL     1     -11.631  -1.406  24.102  0.00  0.00    +0.000 HD
ATOM     47  H   UNL     1     -11.187  -3.094  23.632  0.00  0.00    +0.000 HD
ENDBRANCH  43  44
ENDBRANCH  34  43
ENDBRANCH   1  32
BRANCH   3  48
ATOM     48  N   UNL     1      -4.403  -5.248  19.225  0.00  0.00    +0.000 N 
ATOM     49  H   UNL     1      -3.972  -4.461  18.743  0.00  0.00    +0.000 HD
ATOM     50  H   UNL     1      -3.947  -6.136  19.034  0.00  0.00    +0.000 HD
ENDBRANCH   3  48
BRANCH   2  51
ATOM     51  C   UNL     1      -6.203  -4.316  21.273  0.00  0.00    +0.000 C 
ATOM     52  N   UNL     1      -5.862  -3.804  22.257  0.00  0.00    +0.000 NA
ENDBRANCH   2  51
TORSDOF 8
ENDMDL
MODEL 5
REMARK VINA RESULT:    -6.894      7.391     11.580
REMARK INTER + INTRA:         -10.297
REMARK INTER:                  -9.075
REMARK INTRA:                  -1.222
REMARK UNBOUND:                -0.783
REMARK  Name = 
REMARK  8 active torsions:
REMARK  status: ('A' for Active; 'I' for Inactive)
REMARK    1  A    between atoms: C_1  and  O_2
REMARK    2  A    between atoms: O_2  and  C_3
REMARK    3  A    between atoms: C_6  and  C_7
REMARK    4  A    between atoms: C_8  and  C_9
REMARK    5  A    between atoms: C_11  and  N_12
REMARK    6  A    between atoms: C_19  and  C_20
REMARK    7  A    between atoms: C_28  and  O_29
REMARK    8  A    between atoms: O_29  and  C_30
REMARK                            x       y       z     vdW  Elec       q    Type
REMARK                         _______ _______ _______ _____ _____    ______ ____
ROOT
ATOM      1  C   UNL     1      -9.653   1.519  23.273  0.00  0.00    +0.000 C 
ATOM      2  C   UNL     1     -10.440   1.881  22.020  0.00  0.00    +0.000 C 
ATOM      3  C   UNL     1     -11.350   1.039  21.485  0.00  0.00    +0.000 C 
ATOM      4  O   UNL     1     -11.637  -0.187  22.073  0.00  0.00    +0.000 OA
ATOM      5  C   UNL     1     -10.915  -0.629  23.169  0.00  0.00    +0.000 C 
ATOM      6  C   UNL     1      -9.982   0.133  23.766  0.00  0.00    +0.000 C 
ATOM      7  C   UNL     1      -9.175  -0.458  24.876  0.00  0.00    +0.000 C 
ATOM      8  O   UNL     1      -8.280   0.186  25.419  0.00  0.00    +0.000 OA
ATOM      9  C   UNL     1      -9.513  -1.857  25.342  0.00  0.00    +0.000 C 
ATOM     10  C   UNL     1      -9.937  -2.737  24.157  0.00  0.00    +0.000 C 
ATOM     11  C   UNL     1     -11.170  -2.074  23.514  0.00  0.00    +0.000 C 
ATOM     12  H   UNL     1      -8.599   1.484  22.957  0.00  0.00    +0.000 HD
ATOM     13  H   UNL     1     -10.323  -1.781  26.078  0.00  0.00    +0.000 HD
ATOM     14  H   UNL     1      -8.643  -2.271  25.863  0.00  0.00    +0.000 HD
ATOM     15  H   UNL     1     -10.265  -3.711  24.549  0.00  0.00    +0.000 HD
ATOM     16  H   UNL     1     -12.019  -2.113  24.209  0.00  0.00    +0.000 HD
ATOM     17  H   UNL     1     -11.478  -2.636  22.623  0.00  0.00    +0.000 HD
ENDROOT
BRANCH  10  18
ATOM     18  C   UNL     1      -8.766  -3.040  23.216  0.00  0.00    +0.000 A 
ATOM     19  C   UNL     1      -7.564  -3.535  23.754  0.00  0.00    +0.000 A 
ATOM     20  C   UNL     1      -6.462  -3.805  22.938  0.00  0.00    +0.000 A 
ATOM     21  C   UNL     1      -6.540  -3.596  21.566  0.00  0.00    +0.000 A 
ATOM     22  C   UNL     1      -7.722  -3.124  21.009  0.00  0.00    +0.000 A 
ATOM     23  C   UNL     1      -8.825  -2.855  21.824  0.00  0.00    +0.000 A 
ATOM     24  H   UNL     1      -7.470  -3.716  24.823  0.00  0.00    +0.000 HD
ATOM     25  H   UNL     1      -5.541  -4.177  23.379  0.00  0.00    +0.000 HD
ATOM     26  H   UNL     1      -5.683  -3.805  20.931  0.00  0.00    +0.000 HD
ATOM     27  H   UNL     1      -7.791  -2.963  19.935  0.00  0.00    +0.000 HD
ATOM     28  H   UNL     1      -9.722  -2.494  21.329  0.00  0.00    +0.000 HD
ENDBRANCH  10  18
BRANCH   1  32
ATOM     29  C   UNL     1      -9.974   4.585  26.347  0.00  0.00    +0.000 A 
ATOM     30  C   UNL     1      -8.742   4.270  25.763  0.00  0.00    +0.000 A 
ATOM     31  C   UNL     1      -8.655   3.292  24.768  0.00  0.00    +0.000 A 
ATOM     32  C   UNL     1      -9.794   2.589  24.352  0.00  0.00    +0.000 A 
ATOM     33  C   UNL     1     -11.023   2.899  24.941  0.00  0.00    +0.000 A 
ATOM     34  C   UNL     1     -11.124   3.908  25.910  0.00  0.00    +0.000 A 
ATOM     35  H   UNL     1      -7.819   4.739  26.080  0.00  0.00    +0.000 HD
ATOM     36  H   UNL     1      -7.677   3.055  24.358  0.00  0.00    +0.000 HD
ATOM     37  H   UNL     1     -11.927   2.372  24.643  0.00  0.00    +0.000 HD
BRANCH  29  38
ATOM     38  O   UNL     1     -10.104   5.470  27.385  0.00  0.00    +0.000 OA
BRANCH  38  39
ATOM     39  C   UNL     1      -8.975   6.278  27.692  0.00  0.00    +0.000 C 
ATOM     40  H   UNL     1      -8.372   6.360  26.782  0.00  0.00    +0.000 HD
ATOM     41  H   UNL     1      -8.358   5.807  28.464  0.00  0.00    +0.000 HD
ATOM     42  H   UNL     1      -9.266   7.292  27.978  0.00  0.00    +0.000 HD
ENDBRANCH  38  39
ENDBRANCH  29  38
BRANCH  34  43
ATOM     43  O   UNL     1     -12.402   4.104  26.375  0.00  0.00    +0.000 OA
BRANCH  43  44
ATOM     44  C   UNL     1     -13.424   3.967  25.392  0.00  0.00    +0.000 C 
ATOM     45  H   UNL     1     -14.167   3.264  25.784  0.00  0.00    +0.000 HD
ATOM     46  H   UNL     1     -13.045   3.554  24.450  0.00  0.00    +0.000 HD
ATOM     47  H   UNL     1     -13.937   4.919  25.231  0.00  0.00    +0.000 HD
ENDBRANCH  43  44
ENDBRANCH  34  43
ENDBRANCH   1  32
BRANCH   3  48
ATOM     48  N   UNL     1     -12.077   1.261  20.341  0.00  0.00    +0.000 N 
ATOM     49  H   UNL     1     -11.933   0.589  19.589  0.00  0.00    +0.000 HD
ATOM     50  H   UNL     1     -12.028   2.229  20.031  0.00  0.00    +0.000 HD
ENDBRANCH   3  48
BRANCH   2  51
ATOM     51  C   UNL     1     -10.175   3.143  21.410  0.00  0.00    +0.000 C 
ATOM     52  N   UNL     1      -9.976   4.185  20.939  0.00  0.00    +0.000 NA
ENDBRANCH   2  51
TORSDOF 8
ENDMDL
MODEL 6
REMARK VINA RESULT:    -6.797      2.354      6.895
REMARK INTER + INTRA:         -10.163
REMARK INTER:                 -11.305
REMARK INTRA:                   1.142
REMARK UNBOUND:                -0.783
REMARK  Name = 
REMARK  8 active torsions:
REMARK  status: ('A' for Active; 'I' for Inactive)
REMARK    1  A    between atoms: C_1  and  O_2
REMARK    2  A    between atoms: O_2  and  C_3
REMARK    3  A    between atoms: C_6  and  C_7
REMARK    4  A    between atoms: C_8  and  C_9
REMARK    5  A    between atoms: C_11  and  N_12
REMARK    6  A    between atoms: C_19  and  C_20
REMARK    7  A    between atoms: C_28  and  O_29
REMARK    8  A    between atoms: O_29  and  C_30
REMARK                            x       y       z     vdW  Elec       q    Type
REMARK                         _______ _______ _______ _____ _____    ______ ____
ROOT
ATOM      1  C   UNL     1      -8.411  -5.544  19.412  0.00  0.00    +0.000 C 
ATOM      2  C   UNL     1      -6.912  -5.291  19.495  0.00  0.00    +0.000 C 
ATOM      3  C   UNL     1      -6.071  -5.677  18.512  0.00  0.00    +0.000 C 
ATOM      4  O   UNL     1      -6.539  -6.293  17.358  0.00  0.00    +0.000 OA
ATOM      5  C   UNL     1      -7.877  -6.629  17.231  0.00  0.00    +0.000 C 
ATOM      6  C   UNL     1      -8.789  -6.298  18.162  0.00  0.00    +0.000 C 
ATOM      7  C   UNL     1     -10.190  -6.790  18.002  0.00  0.00    +0.000 C 
ATOM      8  O   UNL     1     -11.046  -6.550  18.851  0.00  0.00    +0.000 OA
ATOM      9  C   UNL     1     -10.541  -7.558  16.746  0.00  0.00    +0.000 C 
ATOM     10  C   UNL     1      -9.368  -8.446  16.307  0.00  0.00    +0.000 C 
ATOM     11  C   UNL     1      -8.164  -7.518  16.049  0.00  0.00    +0.000 C 
ATOM     12  H   UNL     1      -8.643  -6.218  20.251  0.00  0.00    +0.000 HD
ATOM     13  H   UNL     1     -10.791  -6.831  15.965  0.00  0.00    +0.000 HD
ATOM     14  H   UNL     1     -11.445  -8.147  16.939  0.00  0.00    +0.000 HD
ATOM     15  H   UNL     1      -9.626  -8.910  15.344  0.00  0.00    +0.000 HD
ATOM     16  H   UNL     1      -8.369  -6.876  15.183  0.00  0.00    +0.000 HD
ATOM     17  H   UNL     1      -7.280  -8.112  15.787  0.00  0.00    +0.000 HD
ENDROOT
BRANCH  10  18
ATOM     18  C   UNL     1      -9.128  -9.607  17.279  0.00  0.00    +0.000 A 
ATOM     19  C   UNL     1      -9.316 -10.926  16.830  0.00  0.00    +0.000 A 
ATOM     20  C   UNL     1      -9.131 -12.016  17.685  0.00  0.00    +0.000 A 
ATOM     21  C   UNL     1      -8.741 -11.811  19.004  0.00  0.00    +0.000 A 
ATOM     22  C   UNL     1      -8.531 -10.518  19.465  0.00  0.00    +0.000 A 
ATOM     23  C   UNL     1      -8.716  -9.428  18.611  0.00  0.00    +0.000 A 
ATOM     24  H   UNL     1      -9.615 -11.124  15.802  0.00  0.00    +0.000 HD
ATOM     25  H   UNL     1      -9.293 -13.026  17.318  0.00  0.00    +0.000 HD
ATOM     26  H   UNL     1      -8.597 -12.658  19.670  0.00  0.00    +0.000 HD
ATOM     27  H   UNL     1      -8.222 -10.351  20.495  0.00  0.00    +0.000 HD
ATOM     28  H   UNL     1      -8.531  -8.442  19.029  0.00  0.00    +0.000 HD
ENDBRANCH  10  18
BRANCH   1  32
ATOM     29  C   UNL     1     -10.649  -1.860  20.022  0.00  0.00    +0.000 A 
ATOM     30  C   UNL     1      -9.771  -2.345  20.998  0.00  0.00    +0.000 A 
ATOM     31  C   UNL     1      -9.050  -3.523  20.784  0.00  0.00    +0.000 A 
ATOM     32  C   UNL     1      -9.207  -4.256  19.600  0.00  0.00    +0.000 A 
ATOM     33  C   UNL     1     -10.090  -3.775  18.629  0.00  0.00    +0.000 A 
ATOM     34  C   UNL     1     -10.786  -2.573  18.819  0.00  0.00    +0.000 A 
ATOM     35  H   UNL     1      -9.648  -1.853  21.955  0.00  0.00    +0.000 HD
ATOM     36  H   UNL     1      -8.398  -3.883  21.577  0.00  0.00    +0.000 HD
ATOM     37  H   UNL     1     -10.239  -4.319  17.699  0.00  0.00    +0.000 HD
BRANCH  29  38
ATOM     38  O   UNL     1     -11.446  -0.761  20.213  0.00  0.00    +0.000 OA
BRANCH  38  39
ATOM     39  C   UNL     1     -12.100  -0.647  21.470  0.00  0.00    +0.000 C 
ATOM     40  H   UNL     1     -11.440  -0.079  22.134  0.00  0.00    +0.000 HD
ATOM     41  H   UNL     1     -12.259  -1.634  21.917  0.00  0.00    +0.000 HD
ATOM     42  H   UNL     1     -13.037  -0.089  21.392  0.00  0.00    +0.000 HD
ENDBRANCH  38  39
ENDBRANCH  29  38
BRANCH  34  43
ATOM     43  O   UNL     1     -11.597  -2.228  17.765  0.00  0.00    +0.000 OA
BRANCH  43  44
ATOM     44  C   UNL     1     -12.115  -3.329  17.024  0.00  0.00    +0.000 C 
ATOM     45  H   UNL     1     -11.284  -3.776  16.470  0.00  0.00    +0.000 HD
ATOM     46  H   UNL     1     -12.872  -3.021  16.292  0.00  0.00    +0.000 HD
ATOM     47  H   UNL     1     -12.504  -4.100  17.696  0.00  0.00    +0.000 HD
ENDBRANCH  43  44
ENDBRANCH  34  43
ENDBRANCH   1  32
BRANCH   3  48
ATOM     48  N   UNL     1      -4.705  -5.528  18.516  0.00  0.00    +0.000 N 
ATOM     49  H   UNL     1      -4.320  -5.011  19.304  0.00  0.00    +0.000 HD
ATOM     50  H   UNL     1      -4.345  -5.218  17.616  0.00  0.00    +0.000 HD
ENDBRANCH   3  48
BRANCH   2  51
ATOM     51  C   UNL     1      -6.410  -4.644  20.664  0.00  0.00    +0.000 C 
ATOM     52  N   UNL     1      -5.978  -4.101  21.595  0.00  0.00    +0.000 NA
ENDBRANCH   2  51
TORSDOF 8
ENDMDL
MODEL 7
REMARK VINA RESULT:    -6.624      1.010      2.081
REMARK INTER + INTRA:          -9.924
REMARK INTER:                  -9.839
REMARK INTRA:                  -0.085
REMARK UNBOUND:                -0.783
REMARK  Name = 
REMARK  8 active torsions:
REMARK  status: ('A' for Active; 'I' for Inactive)
REMARK    1  A    between atoms: C_1  and  O_2
REMARK    2  A    between atoms: O_2  and  C_3
REMARK    3  A    between atoms: C_6  and  C_7
REMARK    4  A    between atoms: C_8  and  C_9
REMARK    5  A    between atoms: C_11  and  N_12
REMARK    6  A    between atoms: C_19  and  C_20
REMARK    7  A    between atoms: C_28  and  O_29
REMARK    8  A    between atoms: O_29  and  C_30
REMARK                            x       y       z     vdW  Elec       q    Type
REMARK                         _______ _______ _______ _____ _____    ______ ____
ROOT
ATOM      1  C   UNL     1      -8.698  -5.618  17.694  0.00  0.00    +0.000 C 
ATOM      2  C   UNL     1      -8.132  -5.023  18.976  0.00  0.00    +0.000 C 
ATOM      3  C   UNL     1      -8.769  -4.036  19.642  0.00  0.00    +0.000 C 
ATOM      4  O   UNL     1      -9.991  -3.538  19.207  0.00  0.00    +0.000 OA
ATOM      5  C   UNL     1     -10.542  -3.968  18.011  0.00  0.00    +0.000 C 
ATOM      6  C   UNL     1      -9.977  -4.939  17.272  0.00  0.00    +0.000 C 
ATOM      7  C   UNL     1     -10.575  -5.270  15.943  0.00  0.00    +0.000 C 
ATOM      8  O   UNL     1     -10.066  -6.118  15.214  0.00  0.00    +0.000 OA
ATOM      9  C   UNL     1     -11.849  -4.563  15.535  0.00  0.00    +0.000 C 
ATOM     10  C   UNL     1     -11.845  -3.108  16.026  0.00  0.00    +0.000 C 
ATOM     11  C   UNL     1     -11.721  -3.146  17.562  0.00  0.00    +0.000 C 
ATOM     12  H   UNL     1      -7.961  -5.384  16.910  0.00  0.00    +0.000 HD
ATOM     13  H   UNL     1     -12.694  -5.115  15.964  0.00  0.00    +0.000 HD
ATOM     14  H   UNL     1     -11.946  -4.622  14.445  0.00  0.00    +0.000 HD
ATOM     15  H   UNL     1     -12.823  -2.662  15.795  0.00  0.00    +0.000 HD
ATOM     16  H   UNL     1     -12.628  -3.585  17.997  0.00  0.00    +0.000 HD
ATOM     17  H   UNL     1     -11.656  -2.125  17.959  0.00  0.00    +0.000 HD
ENDROOT
BRANCH  10  18
ATOM     18  C   UNL     1     -10.809  -2.253  15.287  0.00  0.00    +0.000 A 
ATOM     19  C   UNL     1     -10.046  -1.322  16.015  0.00  0.00    +0.000 A 
ATOM     20  C   UNL     1      -9.105  -0.505  15.382  0.00  0.00    +0.000 A 
ATOM     21  C   UNL     1      -8.899  -0.608  14.011  0.00  0.00    +0.000 A 
ATOM     22  C   UNL     1      -9.629  -1.533  13.274  0.00  0.00    +0.000 A 
ATOM     23  C   UNL     1     -10.569  -2.351  13.906  0.00  0.00    +0.000 A 
ATOM     24  H   UNL     1     -10.176  -1.219  17.090  0.00  0.00    +0.000 HD
ATOM     25  H   UNL     1      -8.534   0.214  15.963  0.00  0.00    +0.000 HD
ATOM     26  H   UNL     1      -8.168   0.028  13.518  0.00  0.00    +0.000 HD
ATOM     27  H   UNL     1      -9.469  -1.622  12.201  0.00  0.00    +0.000 HD
ATOM     28  H   UNL     1     -11.104  -3.058  13.277  0.00  0.00    +0.000 HD
ENDBRANCH  10  18
BRANCH   1  32
ATOM     29  C   UNL     1      -9.057  -9.952  17.889  0.00  0.00    +0.000 A 
ATOM     30  C   UNL     1      -8.801  -9.299  16.678  0.00  0.00    +0.000 A 
ATOM     31  C   UNL     1      -8.677  -7.908  16.631  0.00  0.00    +0.000 A 
ATOM     32  C   UNL     1      -8.828  -7.135  17.791  0.00  0.00    +0.000 A 
ATOM     33  C   UNL     1      -9.091  -7.787  18.999  0.00  0.00    +0.000 A 
ATOM     34  C   UNL     1      -9.177  -9.185  19.060  0.00  0.00    +0.000 A 
ATOM     35  H   UNL     1      -8.727  -9.837  15.741  0.00  0.00    +0.000 HD
ATOM     36  H   UNL     1      -8.505  -7.435  15.668  0.00  0.00    +0.000 HD
ATOM     37  H   UNL     1      -9.217  -7.219  19.918  0.00  0.00    +0.000 HD
BRANCH  29  38
ATOM     38  O   UNL     1      -9.275 -11.302  17.979  0.00  0.00    +0.000 OA
BRANCH  38  39
ATOM     39  C   UNL     1      -8.585 -12.132  17.053  0.00  0.00    +0.000 C 
ATOM     40  H   UNL     1      -9.339 -12.672  16.470  0.00  0.00    +0.000 HD
ATOM     41  H   UNL     1      -7.971 -12.872  17.576  0.00  0.00    +0.000 HD
ATOM     42  H   UNL     1      -7.990 -11.547  16.347  0.00  0.00    +0.000 HD
ENDBRANCH  38  39
ENDBRANCH  29  38
BRANCH  34  43
ATOM     43  O   UNL     1      -9.419  -9.672  20.322  0.00  0.00    +0.000 OA
BRANCH  43  44
ATOM     44  C   UNL     1      -8.264  -9.801  21.146  0.00  0.00    +0.000 C 
ATOM     45  H   UNL     1      -7.499  -9.126  20.750  0.00  0.00    +0.000 HD
ATOM     46  H   UNL     1      -7.850 -10.817  21.127  0.00  0.00    +0.000 HD
ATOM     47  H   UNL     1      -8.479  -9.478  22.168  0.00  0.00    +0.000 HD
ENDBRANCH  43  44
ENDBRANCH  34  43
ENDBRANCH   1  32
BRANCH   3  48
ATOM     48  N   UNL     1      -8.318  -3.412  20.781  0.00  0.00    +0.000 N 
ATOM     49  H   UNL     1      -8.402  -3.950  21.641  0.00  0.00    +0.000 HD
ATOM     50  H   UNL     1      -8.665  -2.460  20.866  0.00  0.00    +0.000 HD
ENDBRANCH   3  48
BRANCH   2  51
ATOM     51  C   UNL     1      -6.886  -5.530  19.451  0.00  0.00    +0.000 C 
ATOM     52  N   UNL     1      -5.858  -5.933  19.808  0.00  0.00    +0.000 NA
ENDBRANCH   2  51
TORSDOF 8
ENDMDL
MODEL 8
REMARK VINA RESULT:    -6.573      1.700      2.325
REMARK INTER + INTRA:          -9.853
REMARK INTER:                  -9.104
REMARK INTRA:                  -0.749
REMARK UNBOUND:                -0.783
REMARK  Name = 
REMARK  8 active torsions:
REMARK  status: ('A' for Active; 'I' for Inactive)
REMARK    1  A    between atoms: C_1  and  O_2
REMARK    2  A    between atoms: O_2  and  C_3
REMARK    3  A    between atoms: C_6  and  C_7
REMARK    4  A    between atoms: C_8  and  C_9
REMARK    5  A    between atoms: C_11  and  N_12
REMARK    6  A    between atoms: C_19  and  C_20
REMARK    7  A    between atoms: C_28  and  O_29
REMARK    8  A    between atoms: O_29  and  C_30
REMARK                            x       y       z     vdW  Elec       q    Type
REMARK                         _______ _______ _______ _____ _____    ______ ____
ROOT
ATOM      1  C   UNL     1      -9.720  -4.655  16.945  0.00  0.00    +0.000 C 
ATOM      2  C   UNL     1      -9.610  -4.228  18.402  0.00  0.00    +0.000 C 
ATOM      3  C   UNL     1     -10.408  -3.271  18.924  0.00  0.00    +0.000 C 
ATOM      4  O   UNL     1     -11.393  -2.654  18.163  0.00  0.00    +0.000 OA
ATOM      5  C   UNL     1     -11.513  -2.927  16.810  0.00  0.00    +0.000 C 
ATOM      6  C   UNL     1     -10.757  -3.855  16.198  0.00  0.00    +0.000 C 
ATOM      7  C   UNL     1     -10.873  -4.013  14.717  0.00  0.00    +0.000 C 
ATOM      8  O   UNL     1     -10.169  -4.816  14.109  0.00  0.00    +0.000 OA
ATOM      9  C   UNL     1     -11.910  -3.187  13.987  0.00  0.00    +0.000 C 
ATOM     10  C   UNL     1     -12.033  -1.791  14.615  0.00  0.00    +0.000 C 
ATOM     11  C   UNL     1     -12.444  -1.988  16.087  0.00  0.00    +0.000 C 
ATOM     12  H   UNL     1      -8.753  -4.394  16.488  0.00  0.00    +0.000 HD
ATOM     13  H   UNL     1     -12.866  -3.722  14.040  0.00  0.00    +0.000 HD
ATOM     14  H   UNL     1     -11.630  -3.132  12.929  0.00  0.00    +0.000 HD
ATOM     15  H   UNL     1     -12.859  -1.261  14.121  0.00  0.00    +0.000 HD
ATOM     16  H   UNL     1     -13.457  -2.408  16.138  0.00  0.00    +0.000 HD
ATOM     17  H   UNL     1     -12.489  -1.018  16.598  0.00  0.00    +0.000 HD
ENDROOT
BRANCH  10  18
ATOM     18  C   UNL     1     -10.783  -0.937  14.372  0.00  0.00    +0.000 A 
ATOM     19  C   UNL     1     -10.173  -0.961  13.105  0.00  0.00    +0.000 A 
ATOM     20  C   UNL     1      -9.020  -0.217  12.842  0.00  0.00    +0.000 A 
ATOM     21  C   UNL     1      -8.459   0.577  13.836  0.00  0.00    +0.000 A 
ATOM     22  C   UNL     1      -9.054   0.630  15.090  0.00  0.00    +0.000 A 
ATOM     23  C   UNL     1     -10.207  -0.113  15.354  0.00  0.00    +0.000 A 
ATOM     24  H   UNL     1     -10.589  -1.566  12.302  0.00  0.00    +0.000 HD
ATOM     25  H   UNL     1      -8.560  -0.259  11.858  0.00  0.00    +0.000 HD
ATOM     26  H   UNL     1      -7.561   1.155  13.633  0.00  0.00    +0.000 HD
ATOM     27  H   UNL     1      -8.622   1.253  15.871  0.00  0.00    +0.000 HD
ATOM     28  H   UNL     1     -10.629  -0.025  16.352  0.00  0.00    +0.000 HD
ENDBRANCH  10  18
BRANCH   1  32
ATOM     29  C   UNL     1     -10.348  -8.952  16.630  0.00  0.00    +0.000 A 
ATOM     30  C   UNL     1     -11.175  -8.155  17.430  0.00  0.00    +0.000 A 
ATOM     31  C   UNL     1     -10.969  -6.775  17.512  0.00  0.00    +0.000 A 
ATOM     32  C   UNL     1      -9.918  -6.163  16.816  0.00  0.00    +0.000 A 
ATOM     33  C   UNL     1      -9.087  -6.961  16.024  0.00  0.00    +0.000 A 
ATOM     34  C   UNL     1      -9.313  -8.339  15.904  0.00  0.00    +0.000 A 
ATOM     35  H   UNL     1     -11.969  -8.576  18.032  0.00  0.00    +0.000 HD
ATOM     36  H   UNL     1     -11.615  -6.192  18.165  0.00  0.00    +0.000 HD
ATOM     37  H   UNL     1      -8.260  -6.519  15.472  0.00  0.00    +0.000 HD
BRANCH  29  38
ATOM     38  O   UNL     1     -10.448 -10.317  16.579  0.00  0.00    +0.000 OA
BRANCH  38  39
ATOM     39  C   UNL     1      -9.543 -11.062  17.385  0.00  0.00    +0.000 C 
ATOM     40  H   UNL     1     -10.134 -11.772  17.973  0.00  0.00    +0.000 HD
ATOM     41  H   UNL     1      -9.012 -10.406  18.083  0.00  0.00    +0.000 HD
ATOM     42  H   UNL     1      -8.846 -11.648  16.780  0.00  0.00    +0.000 HD
ENDBRANCH  38  39
ENDBRANCH  29  38
BRANCH  34  43
ATOM     43  O   UNL     1      -8.423  -8.977  15.073  0.00  0.00    +0.000 OA
BRANCH  43  44
ATOM     44  C   UNL     1      -9.017  -9.662  13.974  0.00  0.00    +0.000 C 
ATOM     45  H   UNL     1      -9.291  -8.911  13.225  0.00  0.00    +0.000 HD
ATOM     46  H   UNL     1      -9.933 -10.193  14.259  0.00  0.00    +0.000 HD
ATOM     47  H   UNL     1      -8.297 -10.336  13.503  0.00  0.00    +0.000 HD
ENDBRANCH  43  44
ENDBRANCH  34  43
ENDBRANCH   1  32
BRANCH   3  48
ATOM     48  N   UNL     1     -10.357  -2.794  20.211  0.00  0.00    +0.000 N 
ATOM     49  H   UNL     1     -11.220  -2.385  20.565  0.00  0.00    +0.000 HD
ATOM     50  H   UNL     1      -9.538  -2.215  20.379  0.00  0.00    +0.000 HD
ENDBRANCH   3  48
BRANCH   2  51
ATOM     51  C   UNL     1      -8.617  -4.860  19.208  0.00  0.00    +0.000 C 
ATOM     52  N   UNL     1      -7.823  -5.360  19.892  0.00  0.00    +0.000 NA
ENDBRANCH   2  51
TORSDOF 8
ENDMDL
MODEL 9
REMARK VINA RESULT:    -6.568      4.404      6.390
REMARK INTER + INTRA:          -9.846
REMARK INTER:                  -9.173
REMARK INTRA:                  -0.674
REMARK UNBOUND:                -0.783
REMARK  Name = 
REMARK  8 active torsions:
REMARK  status: ('A' for Active; 'I' for Inactive)
REMARK    1  A    between atoms: C_1  and  O_2
REMARK    2  A    between atoms: O_2  and  C_3
REMARK    3  A    between atoms: C_6  and  C_7
REMARK    4  A    between atoms: C_8  and  C_9
REMARK    5  A    between atoms: C_11  and  N_12
REMARK    6  A    between atoms: C_19  and  C_20
REMARK    7  A    between atoms: C_28  and  O_29
REMARK    8  A    between atoms: O_29  and  C_30
REMARK                            x       y       z     vdW  Elec       q    Type
REMARK                         _______ _______ _______ _____ _____    ______ ____
ROOT
ATOM      1  C   UNL     1      -9.111  -2.046  22.005  0.00  0.00    +0.000 C 
ATOM      2  C   UNL     1      -9.544  -2.652  23.333  0.00  0.00    +0.000 C 
ATOM      3  C   UNL     1     -10.784  -2.460  23.831  0.00  0.00    +0.000 C 
ATOM      4  O   UNL     1     -11.739  -1.727  23.137  0.00  0.00    +0.000 OA
ATOM      5  C   UNL     1     -11.409  -1.077  21.958  0.00  0.00    +0.000 C 
ATOM      6  C   UNL     1     -10.197  -1.199  21.390  0.00  0.00    +0.000 C 
ATOM      7  C   UNL     1      -9.887  -0.382  20.178  0.00  0.00    +0.000 C 
ATOM      8  O   UNL     1      -8.777  -0.426  19.652  0.00  0.00    +0.000 OA
ATOM      9  C   UNL     1     -10.987   0.473  19.589  0.00  0.00    +0.000 C 
ATOM     10  C   UNL     1     -11.870   1.062  20.698  0.00  0.00    +0.000 C 
ATOM     11  C   UNL     1     -12.471  -0.122  21.481  0.00  0.00    +0.000 C 
ATOM     12  H   UNL     1      -8.292  -1.352  22.251  0.00  0.00    +0.000 HD
ATOM     13  H   UNL     1     -11.580  -0.158  18.915  0.00  0.00    +0.000 HD
ATOM     14  H   UNL     1     -10.529   1.257  18.976  0.00  0.00    +0.000 HD
ATOM     15  H   UNL     1     -12.710   1.593  20.227  0.00  0.00    +0.000 HD
ATOM     16  H   UNL     1     -13.165  -0.679  20.837  0.00  0.00    +0.000 HD
ATOM     17  H   UNL     1     -13.067   0.248  22.324  0.00  0.00    +0.000 HD
ENDROOT
BRANCH  10  18
ATOM     18  C   UNL     1     -11.126   2.112  21.531  0.00  0.00    +0.000 A 
ATOM     19  C   UNL     1     -11.232   2.074  22.933  0.00  0.00    +0.000 A 
ATOM     20  C   UNL     1     -10.590   3.023  23.734  0.00  0.00    +0.000 A 
ATOM     21  C   UNL     1      -9.819   4.022  23.151  0.00  0.00    +0.000 A 
ATOM     22  C   UNL     1      -9.685   4.069  21.770  0.00  0.00    +0.000 A 
ATOM     23  C   UNL     1     -10.326   3.121  20.968  0.00  0.00    +0.000 A 
ATOM     24  H   UNL     1     -11.823   1.303  23.423  0.00  0.00    +0.000 HD
ATOM     25  H   UNL     1     -10.695   2.980  24.815  0.00  0.00    +0.000 HD
ATOM     26  H   UNL     1      -9.320   4.761  23.774  0.00  0.00    +0.000 HD
ATOM     27  H   UNL     1      -9.078   4.846  21.308  0.00  0.00    +0.000 HD
ATOM     28  H   UNL     1     -10.178   3.206  19.895  0.00  0.00    +0.000 HD
ENDBRANCH  10  18
BRANCH   1  32
ATOM     29  C   UNL     1      -7.634  -5.080  19.256  0.00  0.00    +0.000 A 
ATOM     30  C   UNL     1      -8.938  -4.582  19.153  0.00  0.00    +0.000 A 
ATOM     31  C   UNL     1      -9.395  -3.599  20.035  0.00  0.00    +0.000 A 
ATOM     32  C   UNL     1      -8.568  -3.109  21.055  0.00  0.00    +0.000 A 
ATOM     33  C   UNL     1      -7.268  -3.613  21.161  0.00  0.00    +0.000 A 
ATOM     34  C   UNL     1      -6.789  -4.569  20.255  0.00  0.00    +0.000 A 
ATOM     35  H   UNL     1      -9.640  -4.960  18.421  0.00  0.00    +0.000 HD
ATOM     36  H   UNL     1     -10.423  -3.257  19.942  0.00  0.00    +0.000 HD
ATOM     37  H   UNL     1      -6.600  -3.257  21.943  0.00  0.00    +0.000 HD
BRANCH  29  38
ATOM     38  O   UNL     1      -7.161  -6.104  18.476  0.00  0.00    +0.000 OA
BRANCH  38  39
ATOM     39  C   UNL     1      -8.054  -6.647  17.511  0.00  0.00    +0.000 C 
ATOM     40  H   UNL     1      -8.246  -5.868  16.766  0.00  0.00    +0.000 HD
ATOM     41  H   UNL     1      -9.009  -6.916  17.973  0.00  0.00    +0.000 HD
ATOM     42  H   UNL     1      -7.613  -7.497  16.982  0.00  0.00    +0.000 HD
ENDBRANCH  38  39
ENDBRANCH  29  38
BRANCH  34  43
ATOM     43  O   UNL     1      -5.488  -4.946  20.482  0.00  0.00    +0.000 OA
BRANCH  43  44
ATOM     44  C   UNL     1      -4.660  -3.931  21.043  0.00  0.00    +0.000 C 
ATOM     45  H   UNL     1      -5.207  -3.483  21.879  0.00  0.00    +0.000 HD
ATOM     46  H   UNL     1      -4.438  -3.131  20.328  0.00  0.00    +0.000 HD
ATOM     47  H   UNL     1      -3.743  -4.362  21.454  0.00  0.00    +0.000 HD
ENDBRANCH  43  44
ENDBRANCH  34  43
ENDBRANCH   1  32
BRANCH   3  48
ATOM     48  N   UNL     1     -11.251  -2.932  25.034  0.00  0.00    +0.000 N 
ATOM     49  H   UNL     1     -10.575  -3.440  25.601  0.00  0.00    +0.000 HD
ATOM     50  H   UNL     1     -12.143  -3.413  24.944  0.00  0.00    +0.000 HD
ENDBRANCH   3  48
BRANCH   2  51
ATOM     51  C   UNL     1      -8.586  -3.423  24.056  0.00  0.00    +0.000 C 
ATOM     52  N   UNL     1      -7.830  -4.057  24.668  0.00  0.00    +0.000 NA
ENDBRANCH   2  51
TORSDOF 8
ENDMDL
