REMARK  Name = 
REMARK  5 active torsions:
REMARK  status: ('A' for Active; 'I' for Inactive)
REMARK    1  A    between atoms: N_1  and  C_2
REMARK    2  A    between atoms: N_4  and  C_5
REMARK    3  A    between atoms: C_5  and  C_6
REMARK    4  A    between atoms: C_14  and  N_15
REMARK    5  A    between atoms: N_15  and  C_16
REMARK                            x       y       z     vdW  Elec       q    Type
REMARK                         _______ _______ _______ _____ _____    ______ ____
ROOT
ATOM      1  C   UNL     1       0.935   0.729  -0.637  0.00  0.00    +0.000 A 
ATOM      2  C   UNL     1       0.678  -0.562  -1.155  0.00  0.00    +0.000 A 
ATOM      3  N   UNL     1       0.740  -0.717  -2.552  0.00  0.00    +0.000 N 
ATOM      4  N   UNL     1       0.432  -1.626  -0.368  0.00  0.00    +0.000 NA
ATOM      5  C   UNL     1       0.439  -1.398   0.949  0.00  0.00    +0.000 A 
ATOM      6  N   UNL     1       0.671  -0.218   1.511  0.00  0.00    +0.000 N 
ATOM      7  C   UNL     1       0.928   0.862   0.764  0.00  0.00    +0.000 A 
ATOM      8  H   UNL     1       1.717  -0.791  -2.836  0.00  0.00    +0.000 HD
ATOM      9  H   UNL     1       0.260  -2.239   1.611  0.00  0.00    +0.000 HD
ATOM     10  H   UNL     1       0.652  -0.120   2.520  0.00  0.00    +0.000 HD
ENDROOT
BRANCH   1  11
ATOM     11  N   UNL     1       1.388   1.753  -1.498  0.00  0.00    +0.000 N 
ATOM     12  H   UNL     1       1.055   1.592  -2.454  0.00  0.00    +0.000 HD
ATOM     13  H   UNL     1       1.271   2.711  -1.197  0.00  0.00    +0.000 HD
ENDBRANCH   1  11
BRANCH   3  14
ATOM     14  C   UNL     1      -0.119  -1.764  -3.120  0.00  0.00    +0.000 C 
ATOM     15  H   UNL     1      -0.143  -2.663  -2.493  0.00  0.00    +0.000 HD
ATOM     16  H   UNL     1       0.310  -2.062  -4.083  0.00  0.00    +0.000 HD
BRANCH  14  17
ATOM     17  C   UNL     1      -1.540  -1.199  -3.363  0.00  0.00    +0.000 C 
ATOM     18  C   UNL     1      -2.466  -2.196  -4.043  0.00  0.00    +0.000 C 
ATOM     19  C   UNL     1      -3.122  -2.891  -2.878  0.00  0.00    +0.000 C 
ATOM     20  C   UNL     1      -3.246  -1.776  -1.864  0.00  0.00    +0.000 C 
ATOM     21  O   UNL     1      -2.169  -0.862  -2.104  0.00  0.00    +0.000 OA
ATOM     22  H   UNL     1      -1.461  -0.281  -3.959  0.00  0.00    +0.000 HD
ATOM     23  H   UNL     1      -1.958  -2.879  -4.730  0.00  0.00    +0.000 HD
ATOM     24  H   UNL     1      -3.230  -1.653  -4.614  0.00  0.00    +0.000 HD
ATOM     25  H   UNL     1      -2.463  -3.677  -2.492  0.00  0.00    +0.000 HD
ATOM     26  H   UNL     1      -4.085  -3.345  -3.124  0.00  0.00    +0.000 HD
ATOM     27  H   UNL     1      -3.187  -2.140  -0.835  0.00  0.00    +0.000 HD
ATOM     28  H   UNL     1      -4.185  -1.226  -1.986  0.00  0.00    +0.000 HD
ENDBRANCH  14  17
ENDBRANCH   3  14
BRANCH   7  29
ATOM     29  N   UNL     1       1.205   2.090   1.394  0.00  0.00    +0.000 N 
ATOM     30  H   UNL     1       0.675   2.861   0.991  0.00  0.00    +0.000 HD
BRANCH  29  31
ATOM     31  C   UNL     1       1.534   2.264   2.752  0.00  0.00    +0.000 A 
ATOM     32  C   UNL     1       2.523   1.463   3.346  0.00  0.00    +0.000 A 
ATOM     33  C   UNL     1       2.747   1.508   4.722  0.00  0.00    +0.000 A 
ATOM     34  C   UNL     1       1.990   2.365   5.516  0.00  0.00    +0.000 A 
ATOM     35 CL   UNL     1       2.222   2.374   7.217  0.00  0.00    +0.000 Cl
ATOM     36  C   UNL     1       1.034   3.197   4.937  0.00  0.00    +0.000 A 
ATOM     37  C   UNL     1       0.806   3.147   3.556  0.00  0.00    +0.000 A 
ATOM     38  H   UNL     1       3.151   0.815   2.737  0.00  0.00    +0.000 HD
ATOM     39  H   UNL     1       3.514   0.878   5.169  0.00  0.00    +0.000 HD
ATOM     40  H   UNL     1       0.457   3.880   5.557  0.00  0.00    +0.000 HD
ATOM     41  H   UNL     1       0.042   3.798   3.134  0.00  0.00    +0.000 HD
ENDBRANCH  29  31
ENDBRANCH   7  29
TORSDOF 5
