
 OpenBabel01112423083D

 48 51  0  0  0  0  0  0  0  0999 V2000
    3.7660   -4.6977    4.9676 O   0  0  0  0  0  0  0  0  0  0  0  0
    4.2611   -3.3841    4.6782 C   0  0  0  0  0  0  0  0  0  0  0  0
    5.7995   -3.4096    4.5967 C   0  0  0  0  0  0  0  0  0  0  0  0
    6.2637   -4.4385    3.6460 N   0  0  0  0  0  0  0  0  0  0  0  0
    5.8956   -4.1641    2.3118 C   0  0  0  0  0  0  0  0  0  0  0  0
    5.7782   -5.2465    1.4391 C   0  0  0  0  0  0  0  0  0  0  0  0
    5.2768   -5.0726    0.1335 C   0  0  0  0  0  0  0  0  0  0  0  0
    4.9592   -6.2023   -0.7402 C   0  0  0  0  0  0  0  0  0  0  0  0
    5.1219   -6.1771   -2.1139 C   0  0  0  0  0  0  0  0  0  0  0  0
    4.6179   -7.2301   -2.8570 C   0  0  0  0  0  0  0  0  0  0  0  0
    4.0151   -8.3006   -2.2045 C   0  0  0  0  0  0  0  0  0  0  0  0
    3.5396   -9.3686   -2.9300 N   0  0  0  0  0  0  0  0  0  0  0  0
    3.3808  -10.7202   -2.4242 C   0  0  0  0  0  0  0  0  0  0  0  0
    4.7512  -11.3565   -2.1976 C   0  0  0  0  0  0  0  0  0  0  0  0
    4.5954  -12.8383   -2.5074 C   0  0  0  0  0  0  0  0  0  0  0  0
    3.2282  -13.0144   -3.1556 C   0  0  0  0  0  0  0  0  0  0  0  0
    2.7209  -11.6158   -3.4674 C   0  0  0  0  0  0  0  0  0  0  0  0
    3.9836   -8.2855   -0.8601 N   0  3  0  0  0  0  0  0  0  0  0  0
    4.4184   -7.2728   -0.1228 N   0  0  0  0  0  0  0  0  0  0  0  0
    4.9742   -3.7476   -0.2522 C   0  0  0  0  0  0  0  0  0  0  0  0
    4.4090   -3.0909   -1.3863 C   0  0  0  0  0  0  0  0  0  0  0  0
    4.3735   -1.7373   -1.1215 C   0  0  0  0  0  0  0  0  0  0  0  0
    4.8844   -1.5424    0.1346 N   0  0  0  0  0  0  0  0  0  0  0  0
    5.2186   -2.7503    0.6827 C   0  0  0  0  0  0  0  0  0  0  0  0
    5.6691   -2.8957    1.9332 N   0  0  0  0  0  0  0  0  0  0  0  0
    2.7995   -4.6109    5.0457 H   0  0  0  0  0  0  0  0  0  0  0  0
    3.9334   -2.7032    5.4690 H   0  0  0  0  0  0  0  0  0  0  0  0
    3.8053   -3.0600    3.7370 H   0  0  0  0  0  0  0  0  0  0  0  0
    6.1899   -3.6929    5.5814 H   0  0  0  0  0  0  0  0  0  0  0  0
    6.2063   -2.4189    4.3642 H   0  0  0  0  0  0  0  0  0  0  0  0
    5.8391   -5.3179    3.9398 H   0  0  0  0  0  0  0  0  0  0  0  0
    6.0201   -6.2400    1.8072 H   0  0  0  0  0  0  0  0  0  0  0  0
    5.6091   -5.3446   -2.6131 H   0  0  0  0  0  0  0  0  0  0  0  0
    4.7082   -7.2181   -3.9408 H   0  0  0  0  0  0  0  0  0  0  0  0
    3.0777   -9.1501   -3.8142 H   0  0  0  0  0  0  0  0  0  0  0  0
    2.7841  -10.7386   -1.5040 H   0  0  0  0  0  0  0  0  0  0  0  0
    5.1000  -11.1933   -1.1717 H   0  0  0  0  0  0  0  0  0  0  0  0
    5.5098  -10.9223   -2.8616 H   0  0  0  0  0  0  0  0  0  0  0  0
    4.6687  -13.4403   -1.5955 H   0  0  0  0  0  0  0  0  0  0  0  0
    5.3954  -13.1694   -3.1788 H   0  0  0  0  0  0  0  0  0  0  0  0
    2.5495  -13.5187   -2.4588 H   0  0  0  0  0  0  0  0  0  0  0  0
    3.2855  -13.6284   -4.0605 H   0  0  0  0  0  0  0  0  0  0  0  0
    1.6279  -11.5631   -3.4072 H   0  0  0  0  0  0  0  0  0  0  0  0
    3.0049  -11.3296   -4.4868 H   0  0  0  0  0  0  0  0  0  0  0  0
    3.5660   -9.0788   -0.3857 H   0  0  0  0  0  0  0  0  0  0  0  0
    4.0508   -3.5375   -2.3046 H   0  0  0  0  0  0  0  0  0  0  0  0
    4.0237   -0.9020   -1.7163 H   0  0  0  0  0  0  0  0  0  0  0  0
    4.9723   -0.6600    0.6179 H   0  0  0  0  0  0  0  0  0  0  0  0
  1  2  1  0  0  0  0
  1 26  1  0  0  0  0
  2  3  1  0  0  0  0
  2 27  1  0  0  0  0
  2 28  1  0  0  0  0
  3  4  1  0  0  0  0
  3 29  1  0  0  0  0
  3 30  1  0  0  0  0
  4  5  1  0  0  0  0
  4 31  1  0  0  0  0
  5  6  1  0  0  0  0
  5 25  2  0  0  0  0
  6  7  2  0  0  0  0
  6 32  1  0  0  0  0
  7  8  1  0  0  0  0
  7 20  1  0  0  0  0
  8  9  1  0  0  0  0
  8 19  2  0  0  0  0
  9 10  2  0  0  0  0
  9 33  1  0  0  0  0
 10 11  1  0  0  0  0
 10 34  1  0  0  0  0
 11 12  1  0  0  0  0
 11 18  2  0  0  0  0
 12 13  1  0  0  0  0
 12 35  1  0  0  0  0
 13 14  1  0  0  0  0
 13 17  1  0  0  0  0
 13 36  1  0  0  0  0
 14 15  1  0  0  0  0
 14 37  1  0  0  0  0
 14 38  1  0  0  0  0
 15 16  1  0  0  0  0
 15 39  1  0  0  0  0
 15 40  1  0  0  0  0
 16 17  1  0  0  0  0
 16 41  1  0  0  0  0
 16 42  1  0  0  0  0
 17 43  1  0  0  0  0
 17 44  1  0  0  0  0
 18 19  1  0  0  0  0
 18 45  1  0  0  0  0
 20 21  1  0  0  0  0
 20 24  2  0  0  0  0
 21 22  2  0  0  0  0
 21 46  1  0  0  0  0
 22 23  1  0  0  0  0
 22 47  1  0  0  0  0
 23 24  1  0  0  0  0
 23 48  1  0  0  0  0
 24 25  1  0  0  0  0
M  CHG  1  18   1
M  END
$$$$
