
 OpenBabel01112423133D

 47 50  0  0  0  0  0  0  0  0999 V2000
    3.6886   -0.4548    1.4157 C   0  0  0  0  0  0  0  0  0  0  0  0
    2.3732   -0.3280    0.1774 S   0  0  0  0  0  0  0  0  0  0  0  0
    2.9101   -1.5360   -0.9357 C   0  0  0  0  0  0  0  0  0  0  0  0
    2.4294   -2.7910   -0.6647 N   0  0  0  0  0  0  0  0  0  0  0  0
    2.7015   -3.9078   -1.4095 C   0  0  0  0  0  0  0  0  0  0  0  0
    2.2064   -4.9974   -1.1363 O   0  0  0  0  0  0  0  0  0  0  0  0
    3.6251   -3.7317   -2.5656 C   0  0  0  0  0  0  0  0  0  0  0  0
    4.0596   -4.8669   -3.4528 C   0  0  0  0  0  0  0  0  0  0  0  0
    4.9182   -4.6596   -4.3065 O   0  0  0  0  0  0  0  0  0  0  0  0
    3.4009   -6.0584   -3.2219 N   0  0  0  0  0  0  0  0  0  0  0  0
    3.6040   -7.1693   -3.9941 C   0  0  0  0  0  0  0  0  0  0  0  0
    4.4939   -7.3539   -4.9225 N   0  0  0  0  0  0  0  0  0  0  0  0
    4.3361   -8.5925   -5.5428 C   0  0  0  0  0  0  0  0  0  0  0  0
    5.2848   -8.9618   -6.5938 C   0  0  0  0  0  0  0  0  0  0  0  0
    5.3031  -10.1416   -7.3395 C   0  0  0  0  0  0  0  0  0  0  0  0
    6.3329  -10.3625   -8.2852 C   0  0  0  0  0  0  0  0  0  0  0  0
    7.3697   -9.4242   -8.4836 C   0  0  0  0  0  0  0  0  0  0  0  0
    7.3301   -8.2442   -7.7561 C   0  0  0  0  0  0  0  0  0  0  0  0
    6.2906   -8.0259   -6.8496 C   0  0  0  0  0  0  0  0  0  0  0  0
    8.3085   -7.1287   -7.9054 C   0  0  0  0  0  0  0  0  0  0  0  0
    9.6119   -7.4590   -8.5959 C   0  0  0  0  0  0  0  0  0  0  0  0
    9.6514   -8.6911   -9.4898 C   0  0  0  0  0  0  0  0  0  0  0  0
    8.4693   -9.6729   -9.4776 C   0  0  0  0  0  0  0  0  0  0  0  0
    3.2789   -9.3300   -5.0503 C   0  0  0  0  0  0  0  0  0  0  0  0
    2.5319   -8.4713   -3.7415 S   0  0  0  0  0  0  0  0  0  0  0  0
    4.0761   -2.4845   -2.8225 C   0  0  0  0  0  0  0  0  0  0  0  0
    3.7106   -1.3348   -1.9986 C   0  0  0  0  0  0  0  0  0  0  0  0
    4.2161   -0.0445   -2.3591 C   0  0  0  0  0  0  0  0  0  0  0  0
    4.6531    0.9848   -2.6521 N   0  0  0  0  0  0  0  0  0  0  0  0
    3.5060    0.2661    2.2167 H   0  0  0  0  0  0  0  0  0  0  0  0
    4.6609   -0.2385    0.9649 H   0  0  0  0  0  0  0  0  0  0  0  0
    3.7077   -1.4591    1.8489 H   0  0  0  0  0  0  0  0  0  0  0  0
    1.7971   -2.8993    0.1200 H   0  0  0  0  0  0  0  0  0  0  0  0
    2.6941   -6.1227   -2.4971 H   0  0  0  0  0  0  0  0  0  0  0  0
    4.5399  -10.9043   -7.2114 H   0  0  0  0  0  0  0  0  0  0  0  0
    6.3218  -11.2836   -8.8687 H   0  0  0  0  0  0  0  0  0  0  0  0
    6.2833   -7.0755   -6.3142 H   0  0  0  0  0  0  0  0  0  0  0  0
    7.8057   -6.3050   -8.4262 H   0  0  0  0  0  0  0  0  0  0  0  0
    8.5551   -6.7583   -6.8999 H   0  0  0  0  0  0  0  0  0  0  0  0
   10.3896   -7.5617   -7.8273 H   0  0  0  0  0  0  0  0  0  0  0  0
    9.9183   -6.5774   -9.1754 H   0  0  0  0  0  0  0  0  0  0  0  0
   10.5648   -9.2473   -9.2358 H   0  0  0  0  0  0  0  0  0  0  0  0
    9.8207   -8.3626  -10.5236 H   0  0  0  0  0  0  0  0  0  0  0  0
    8.8756  -10.6785   -9.3042 H   0  0  0  0  0  0  0  0  0  0  0  0
    8.0302   -9.6884  -10.4835 H   0  0  0  0  0  0  0  0  0  0  0  0
    2.9120  -10.2999   -5.3502 H   0  0  0  0  0  0  0  0  0  0  0  0
    4.7419   -2.2961   -3.6651 H   0  0  0  0  0  0  0  0  0  0  0  0
  1  2  1  0  0  0  0
  1 30  1  0  0  0  0
  1 31  1  0  0  0  0
  1 32  1  0  0  0  0
  2  3  1  0  0  0  0
  3  4  1  0  0  0  0
  3 27  2  0  0  0  0
  4  5  1  0  0  0  0
  4 33  1  0  0  0  0
  5  6  2  0  0  0  0
  5  7  1  0  0  0  0
  7  8  1  0  0  0  0
  7 26  2  0  0  0  0
  8  9  2  0  0  0  0
  8 10  1  0  0  0  0
 10 11  1  0  0  0  0
 10 34  1  0  0  0  0
 11 12  2  0  0  0  0
 11 25  1  0  0  0  0
 12 13  1  0  0  0  0
 13 14  1  0  0  0  0
 13 24  2  0  0  0  0
 14 15  1  0  0  0  0
 14 19  2  0  0  0  0
 15 16  2  0  0  0  0
 15 35  1  0  0  0  0
 16 17  1  0  0  0  0
 16 36  1  0  0  0  0
 17 18  2  0  0  0  0
 17 23  1  0  0  0  0
 18 19  1  0  0  0  0
 18 20  1  0  0  0  0
 19 37  1  0  0  0  0
 20 21  1  0  0  0  0
 20 38  1  0  0  0  0
 20 39  1  0  0  0  0
 21 22  1  0  0  0  0
 21 40  1  0  0  0  0
 21 41  1  0  0  0  0
 22 23  1  0  0  0  0
 22 42  1  0  0  0  0
 22 43  1  0  0  0  0
 23 44  1  0  0  0  0
 23 45  1  0  0  0  0
 24 25  1  0  0  0  0
 24 46  1  0  0  0  0
 26 27  1  0  0  0  0
 26 47  1  0  0  0  0
 27 28  1  0  0  0  0
 28 29  3  0  0  0  0
M  END
$$$$
