MODEL 1
REMARK VINA RESULT:   -11.116      0.000      0.000
REMARK INTER + INTRA:         -14.536
REMARK INTER:                 -14.040
REMARK INTRA:                  -0.495
REMARK UNBOUND:                -0.495
REMARK  Name = 
REMARK  5 active torsions:
REMARK  status: ('A' for Active; 'I' for Inactive)
REMARK    1  A    between atoms: C_2  and  C_3
REMARK    2  A    between atoms: C_3  and  N_4
REMARK    3  A    between atoms: N_19  and  N_20
REMARK    4  A    between atoms: C_21  and  C_22
REMARK    5  A    between atoms: C_28  and  O_29
REMARK                            x       y       z     vdW  Elec       q    Type
REMARK                         _______ _______ _______ _____ _____    ______ ____
ROOT
ATOM      1  N   UNL     1      -8.621  -4.546  19.171  0.00  0.00    +0.000 N 
ATOM      2  C   UNL     1      -7.267  -4.801  19.532  0.00  0.00    +0.000 A 
ATOM      3  C   UNL     1      -6.424  -5.700  18.855  0.00  0.00    +0.000 A 
ATOM      4  C   UNL     1      -5.108  -5.948  19.271  0.00  0.00    +0.000 A 
ATOM      5  C   UNL     1      -4.575  -5.273  20.360  0.00  0.00    +0.000 A 
ATOM      6  C   UNL     1      -5.362  -4.346  21.030  0.00  0.00    +0.000 A 
ATOM      7  C   UNL     1      -6.688  -4.121  20.621  0.00  0.00    +0.000 A 
ATOM      8  C   UNL     1      -7.486  -3.129  21.362  0.00  0.00    +0.000 A 
ATOM      9  O   UNL     1      -7.018  -2.548  22.339  0.00  0.00    +0.000 OA
ATOM     10  C   UNL     1      -8.848  -2.818  20.886  0.00  0.00    +0.000 A 
ATOM     11  C   UNL     1      -9.568  -1.814  21.558  0.00  0.00    +0.000 A 
ATOM     12  C   UNL     1     -10.824  -1.438  21.105  0.00  0.00    +0.000 A 
ATOM     13  C   UNL     1     -11.339  -2.045  19.967  0.00  0.00    +0.000 A 
ATOM     14  C   UNL     1     -10.621  -3.055  19.309  0.00  0.00    +0.000 A 
ATOM     15  C   UNL     1      -9.369  -3.501  19.767  0.00  0.00    +0.000 A 
ATOM     16  H   UNL     1      -6.749  -6.245  17.974  0.00  0.00    +0.000 HD
ATOM     17  H   UNL     1      -4.504  -6.677  18.733  0.00  0.00    +0.000 HD
ATOM     18  H   UNL     1      -3.554  -5.463  20.680  0.00  0.00    +0.000 HD
ATOM     19  H   UNL     1      -4.946  -3.798  21.872  0.00  0.00    +0.000 HD
ATOM     20  H   UNL     1      -9.139  -1.322  22.429  0.00  0.00    +0.000 HD
ATOM     21  H   UNL     1     -11.382  -0.661  21.619  0.00  0.00    +0.000 HD
ATOM     22  H   UNL     1     -12.305  -1.726  19.578  0.00  0.00    +0.000 HD
ATOM     23  H   UNL     1     -11.083  -3.439  18.407  0.00  0.00    +0.000 HD
ENDROOT
BRANCH   1  24
ATOM     24  C   UNL     1      -9.214  -5.355  18.074  0.00  0.00    +0.000 C 
ATOM     25  H   UNL     1     -10.200  -5.018  17.753  0.00  0.00    +0.000 HD
ATOM     26  H   UNL     1      -8.592  -5.273  17.173  0.00  0.00    +0.000 HD
BRANCH  24  28
ATOM     27  O   UNL     1      -9.505  -7.217  19.577  0.00  0.00    +0.000 OA
ATOM     28  C   UNL     1      -9.398  -6.839  18.410  0.00  0.00    +0.000 C 
ATOM     29  N   UNL     1      -9.341  -7.701  17.321  0.00  0.00    +0.000 N 
ATOM     30  H   UNL     1      -9.330  -7.355  16.368  0.00  0.00    +0.000 HD
BRANCH  29  31
ATOM     31  N   UNL     1      -9.420  -9.042  17.565  0.00  0.00    +0.000 NA
ATOM     32  C   UNL     1      -8.651  -9.822  16.877  0.00  0.00    +0.000 C 
ATOM     33  H   UNL     1      -7.942  -9.424  16.130  0.00  0.00    +0.000 HD
BRANCH  32  34
ATOM     34  C   UNL     1      -8.713 -11.291  17.057  0.00  0.00    +0.000 A 
ATOM     35  C   UNL     1      -8.736 -12.132  15.937  0.00  0.00    +0.000 A 
ATOM     36  C   UNL     1      -8.765 -13.515  16.109  0.00  0.00    +0.000 A 
ATOM     37 CL   UNL     1      -8.798 -14.554  14.741  0.00  0.00    +0.000 Cl
ATOM     38  C   UNL     1      -8.768 -14.067  17.394  0.00  0.00    +0.000 A 
ATOM     39  C   UNL     1      -8.746 -13.230  18.512  0.00  0.00    +0.000 A 
ATOM     40  C   UNL     1      -8.720 -11.846  18.342  0.00  0.00    +0.000 A 
ATOM     41  H   UNL     1      -8.726 -11.713  14.933  0.00  0.00    +0.000 HD
ATOM     42  H   UNL     1      -8.784 -15.147  17.524  0.00  0.00    +0.000 HD
ATOM     43  H   UNL     1      -8.742 -13.680  19.502  0.00  0.00    +0.000 HD
BRANCH  40  44
ATOM     44  O   UNL     1      -8.699 -11.029  19.439  0.00  0.00    +0.000 OA
ATOM     45  H   UNL     1      -9.528 -11.138  19.936  0.00  0.00    +0.000 HD
ENDBRANCH  40  44
ENDBRANCH  32  34
ENDBRANCH  29  31
ENDBRANCH  24  28
ENDBRANCH   1  24
TORSDOF 5
ENDMDL
MODEL 2
REMARK VINA RESULT:   -10.527      3.632      4.941
REMARK INTER + INTRA:         -13.791
REMARK INTER:                 -12.948
REMARK INTRA:                  -0.844
REMARK UNBOUND:                -0.495
REMARK  Name = 
REMARK  5 active torsions:
REMARK  status: ('A' for Active; 'I' for Inactive)
REMARK    1  A    between atoms: C_2  and  C_3
REMARK    2  A    between atoms: C_3  and  N_4
REMARK    3  A    between atoms: N_19  and  N_20
REMARK    4  A    between atoms: C_21  and  C_22
REMARK    5  A    between atoms: C_28  and  O_29
REMARK                            x       y       z     vdW  Elec       q    Type
REMARK                         _______ _______ _______ _____ _____    ______ ____
ROOT
ATOM      1  N   UNL     1     -11.057  -3.471  16.555  0.00  0.00    +0.000 N 
ATOM      2  C   UNL     1     -11.004  -3.169  15.164  0.00  0.00    +0.000 A 
ATOM      3  C   UNL     1     -11.582  -3.966  14.160  0.00  0.00    +0.000 A 
ATOM      4  C   UNL     1     -11.472  -3.650  12.798  0.00  0.00    +0.000 A 
ATOM      5  C   UNL     1     -10.810  -2.498  12.395  0.00  0.00    +0.000 A 
ATOM      6  C   UNL     1     -10.263  -1.662  13.359  0.00  0.00    +0.000 A 
ATOM      7  C   UNL     1     -10.357  -1.999  14.720  0.00  0.00    +0.000 A 
ATOM      8  C   UNL     1      -9.760  -1.084  15.707  0.00  0.00    +0.000 A 
ATOM      9  O   UNL     1      -9.158  -0.075  15.346  0.00  0.00    +0.000 OA
ATOM     10  C   UNL     1      -9.932  -1.380  17.142  0.00  0.00    +0.000 A 
ATOM     11  C   UNL     1      -9.423  -0.456  18.072  0.00  0.00    +0.000 A 
ATOM     12  C   UNL     1      -9.621  -0.655  19.431  0.00  0.00    +0.000 A 
ATOM     13  C   UNL     1     -10.351  -1.759  19.850  0.00  0.00    +0.000 A 
ATOM     14  C   UNL     1     -10.846  -2.685  18.918  0.00  0.00    +0.000 A 
ATOM     15  C   UNL     1     -10.622  -2.545  17.536  0.00  0.00    +0.000 A 
ATOM     16  H   UNL     1     -12.145  -4.866  14.389  0.00  0.00    +0.000 HD
ATOM     17  H   UNL     1     -11.909  -4.315  12.056  0.00  0.00    +0.000 HD
ATOM     18  H   UNL     1     -10.728  -2.251  11.340  0.00  0.00    +0.000 HD
ATOM     19  H   UNL     1      -9.760  -0.748  13.053  0.00  0.00    +0.000 HD
ATOM     20  H   UNL     1      -8.881   0.424  17.730  0.00  0.00    +0.000 HD
ATOM     21  H   UNL     1      -9.231   0.057  20.152  0.00  0.00    +0.000 HD
ATOM     22  H   UNL     1     -10.550  -1.901  20.911  0.00  0.00    +0.000 HD
ATOM     23  H   UNL     1     -11.440  -3.489  19.334  0.00  0.00    +0.000 HD
ENDROOT
BRANCH   1  24
ATOM     24  C   UNL     1     -11.670  -4.760  16.966  0.00  0.00    +0.000 C 
ATOM     25  H   UNL     1     -12.118  -4.745  17.961  0.00  0.00    +0.000 HD
ATOM     26  H   UNL     1     -12.503  -5.007  16.296  0.00  0.00    +0.000 HD
BRANCH  24  28
ATOM     27  O   UNL     1      -9.668  -5.904  17.671  0.00  0.00    +0.000 OA
ATOM     28  C   UNL     1     -10.696  -5.944  16.994  0.00  0.00    +0.000 C 
ATOM     29  N   UNL     1     -11.020  -6.993  16.141  0.00  0.00    +0.000 N 
ATOM     30  H   UNL     1     -11.909  -7.030  15.656  0.00  0.00    +0.000 HD
BRANCH  29  31
ATOM     31  N   UNL     1     -10.149  -8.042  16.063  0.00  0.00    +0.000 NA
ATOM     32  C   UNL     1     -10.639  -9.235  16.168  0.00  0.00    +0.000 C 
ATOM     33  H   UNL     1     -11.721  -9.407  16.300  0.00  0.00    +0.000 HD
BRANCH  32  34
ATOM     34  C   UNL     1      -9.750 -10.419  16.137  0.00  0.00    +0.000 A 
ATOM     35  C   UNL     1      -9.625 -11.231  17.272  0.00  0.00    +0.000 A 
ATOM     36  C   UNL     1      -8.811 -12.361  17.229  0.00  0.00    +0.000 A 
ATOM     37 CL   UNL     1      -8.649 -13.360  18.619  0.00  0.00    +0.000 Cl
ATOM     38  C   UNL     1      -8.119 -12.691  16.060  0.00  0.00    +0.000 A 
ATOM     39  C   UNL     1      -8.241 -11.883  14.927  0.00  0.00    +0.000 A 
ATOM     40  C   UNL     1      -9.053 -10.748  14.968  0.00  0.00    +0.000 A 
ATOM     41  H   UNL     1     -10.166 -10.987  18.184  0.00  0.00    +0.000 HD
ATOM     42  H   UNL     1      -7.489 -13.577  16.030  0.00  0.00    +0.000 HD
ATOM     43  H   UNL     1      -7.700 -12.160  14.026  0.00  0.00    +0.000 HD
BRANCH  40  44
ATOM     44  O   UNL     1      -9.170  -9.959  13.857  0.00  0.00    +0.000 OA
ATOM     45  H   UNL     1      -8.323  -9.951  13.379  0.00  0.00    +0.000 HD
ENDBRANCH  40  44
ENDBRANCH  32  34
ENDBRANCH  29  31
ENDBRANCH  24  28
ENDBRANCH   1  24
TORSDOF 5
ENDMDL
MODEL 3
REMARK VINA RESULT:   -10.421      3.740      5.110
REMARK INTER + INTRA:         -13.658
REMARK INTER:                 -12.986
REMARK INTRA:                  -0.672
REMARK UNBOUND:                -0.495
REMARK  Name = 
REMARK  5 active torsions:
REMARK  status: ('A' for Active; 'I' for Inactive)
REMARK    1  A    between atoms: C_2  and  C_3
REMARK    2  A    between atoms: C_3  and  N_4
REMARK    3  A    between atoms: N_19  and  N_20
REMARK    4  A    between atoms: C_21  and  C_22
REMARK    5  A    between atoms: C_28  and  O_29
REMARK                            x       y       z     vdW  Elec       q    Type
REMARK                         _______ _______ _______ _____ _____    ______ ____
ROOT
ATOM      1  N   UNL     1     -11.082  -3.355  16.526  0.00  0.00    +0.000 N 
ATOM      2  C   UNL     1     -10.484  -2.447  17.445  0.00  0.00    +0.000 A 
ATOM      3  C   UNL     1     -10.267  -2.727  18.805  0.00  0.00    +0.000 A 
ATOM      4  C   UNL     1      -9.709  -1.786  19.683  0.00  0.00    +0.000 A 
ATOM      5  C   UNL     1      -9.312  -0.540  19.219  0.00  0.00    +0.000 A 
ATOM      6  C   UNL     1      -9.470  -0.240  17.873  0.00  0.00    +0.000 A 
ATOM      7  C   UNL     1     -10.052  -1.180  17.004  0.00  0.00    +0.000 A 
ATOM      8  C   UNL     1     -10.202  -0.818  15.585  0.00  0.00    +0.000 A 
ATOM      9  O   UNL     1      -9.868   0.294  15.181  0.00  0.00    +0.000 OA
ATOM     10  C   UNL     1     -10.726  -1.829  14.648  0.00  0.00    +0.000 A 
ATOM     11  C   UNL     1     -10.791  -1.494  13.283  0.00  0.00    +0.000 A 
ATOM     12  C   UNL     1     -11.211  -2.435  12.355  0.00  0.00    +0.000 A 
ATOM     13  C   UNL     1     -11.535  -3.713  12.791  0.00  0.00    +0.000 A 
ATOM     14  C   UNL     1     -11.480  -4.038  14.155  0.00  0.00    +0.000 A 
ATOM     15  C   UNL     1     -11.110  -3.097  15.132  0.00  0.00    +0.000 A 
ATOM     16  H   UNL     1     -10.517  -3.688  19.244  0.00  0.00    +0.000 HD
ATOM     17  H   UNL     1      -9.590  -2.038  20.735  0.00  0.00    +0.000 HD
ATOM     18  H   UNL     1      -8.876   0.188  19.898  0.00  0.00    +0.000 HD
ATOM     19  H   UNL     1      -9.144   0.727  17.496  0.00  0.00    +0.000 HD
ATOM     20  H   UNL     1     -10.502  -0.499  12.950  0.00  0.00    +0.000 HD
ATOM     21  H   UNL     1     -11.260  -2.181  11.300  0.00  0.00    +0.000 HD
ATOM     22  H   UNL     1     -11.823  -4.472  12.065  0.00  0.00    +0.000 HD
ATOM     23  H   UNL     1     -11.709  -5.069  14.395  0.00  0.00    +0.000 HD
ENDROOT
BRANCH   1  24
ATOM     24  C   UNL     1     -11.604  -4.641  17.056  0.00  0.00    +0.000 C 
ATOM     25  H   UNL     1     -11.879  -4.612  18.111  0.00  0.00    +0.000 HD
ATOM     26  H   UNL     1     -12.535  -4.906  16.539  0.00  0.00    +0.000 HD
BRANCH  24  28
ATOM     27  O   UNL     1      -9.495  -5.752  17.420  0.00  0.00    +0.000 OA
ATOM     28  C   UNL     1     -10.627  -5.817  16.939  0.00  0.00    +0.000 C 
ATOM     29  N   UNL     1     -11.087  -6.892  16.186  0.00  0.00    +0.000 N 
ATOM     30  H   UNL     1     -12.048  -6.948  15.869  0.00  0.00    +0.000 HD
BRANCH  29  31
ATOM     31  N   UNL     1     -10.232  -7.937  15.980  0.00  0.00    +0.000 NA
ATOM     32  C   UNL     1     -10.638  -9.117  16.320  0.00  0.00    +0.000 C 
ATOM     33  H   UNL     1     -11.643  -9.284  16.745  0.00  0.00    +0.000 HD
BRANCH  32  34
ATOM     34  C   UNL     1      -9.749 -10.292  16.167  0.00  0.00    +0.000 A 
ATOM     35  C   UNL     1      -9.514 -11.138  17.258  0.00  0.00    +0.000 A 
ATOM     36  C   UNL     1      -8.701 -12.259  17.103  0.00  0.00    +0.000 A 
ATOM     37 CL   UNL     1      -8.403 -13.300  18.439  0.00  0.00    +0.000 Cl
ATOM     38  C   UNL     1      -8.120 -12.546  15.864  0.00  0.00    +0.000 A 
ATOM     39  C   UNL     1      -8.352 -11.703  14.774  0.00  0.00    +0.000 A 
ATOM     40  C   UNL     1      -9.163 -10.578  14.927  0.00  0.00    +0.000 A 
ATOM     41  H   UNL     1      -9.968 -10.928  18.225  0.00  0.00    +0.000 HD
ATOM     42  H   UNL     1      -7.491 -13.425  15.746  0.00  0.00    +0.000 HD
ATOM     43  H   UNL     1      -7.896 -11.947  13.818  0.00  0.00    +0.000 HD
BRANCH  40  44
ATOM     44  O   UNL     1      -9.388  -9.755  13.859  0.00  0.00    +0.000 OA
ATOM     45  H   UNL     1      -8.569  -9.276  13.645  0.00  0.00    +0.000 HD
ENDBRANCH  40  44
ENDBRANCH  32  34
ENDBRANCH  29  31
ENDBRANCH  24  28
ENDBRANCH   1  24
TORSDOF 5
ENDMDL
MODEL 4
REMARK VINA RESULT:   -10.323      0.474      3.440
REMARK INTER + INTRA:         -13.534
REMARK INTER:                 -12.953
REMARK INTRA:                  -0.580
REMARK UNBOUND:                -0.495
REMARK  Name = 
REMARK  5 active torsions:
REMARK  status: ('A' for Active; 'I' for Inactive)
REMARK    1  A    between atoms: C_2  and  C_3
REMARK    2  A    between atoms: C_3  and  N_4
REMARK    3  A    between atoms: N_19  and  N_20
REMARK    4  A    between atoms: C_21  and  C_22
REMARK    5  A    between atoms: C_28  and  O_29
REMARK                            x       y       z     vdW  Elec       q    Type
REMARK                         _______ _______ _______ _____ _____    ______ ____
ROOT
ATOM      1  N   UNL     1      -8.606  -4.699  18.881  0.00  0.00    +0.000 N 
ATOM      2  C   UNL     1      -9.583  -3.813  19.418  0.00  0.00    +0.000 A 
ATOM      3  C   UNL     1     -10.919  -3.754  18.984  0.00  0.00    +0.000 A 
ATOM      4  C   UNL     1     -11.838  -2.838  19.516  0.00  0.00    +0.000 A 
ATOM      5  C   UNL     1     -11.460  -1.972  20.533  0.00  0.00    +0.000 A 
ATOM      6  C   UNL     1     -10.161  -2.029  21.019  0.00  0.00    +0.000 A 
ATOM      7  C   UNL     1      -9.239  -2.934  20.463  0.00  0.00    +0.000 A 
ATOM      8  C   UNL     1      -7.872  -2.958  21.009  0.00  0.00    +0.000 A 
ATOM      9  O   UNL     1      -7.534  -2.177  21.896  0.00  0.00    +0.000 OA
ATOM     10  C   UNL     1      -6.923  -3.965  20.497  0.00  0.00    +0.000 A 
ATOM     11  C   UNL     1      -5.645  -4.026  21.082  0.00  0.00    +0.000 A 
ATOM     12  C   UNL     1      -4.743  -5.001  20.683  0.00  0.00    +0.000 A 
ATOM     13  C   UNL     1      -5.133  -5.927  19.725  0.00  0.00    +0.000 A 
ATOM     14  C   UNL     1      -6.404  -5.854  19.135  0.00  0.00    +0.000 A 
ATOM     15  C   UNL     1      -7.328  -4.849  19.475  0.00  0.00    +0.000 A 
ATOM     16  H   UNL     1     -11.307  -4.416  18.216  0.00  0.00    +0.000 HD
ATOM     17  H   UNL     1     -12.853  -2.807  19.125  0.00  0.00    +0.000 HD
ATOM     18  H   UNL     1     -12.173  -1.265  20.948  0.00  0.00    +0.000 HD
ATOM     19  H   UNL     1      -9.861  -1.368  21.829  0.00  0.00    +0.000 HD
ATOM     20  H   UNL     1      -5.364  -3.316  21.857  0.00  0.00    +0.000 HD
ATOM     21  H   UNL     1      -3.757  -5.053  21.134  0.00  0.00    +0.000 HD
ATOM     22  H   UNL     1      -4.448  -6.723  19.437  0.00  0.00    +0.000 HD
ATOM     23  H   UNL     1      -6.634  -6.643  18.430  0.00  0.00    +0.000 HD
ENDROOT
BRANCH   1  24
ATOM     24  C   UNL     1      -8.991  -5.541  17.719  0.00  0.00    +0.000 C 
ATOM     25  H   UNL     1      -9.882  -5.197  17.193  0.00  0.00    +0.000 HD
ATOM     26  H   UNL     1      -8.198  -5.513  16.960  0.00  0.00    +0.000 HD
BRANCH  24  28
ATOM     27  O   UNL     1      -9.501  -7.349  19.230  0.00  0.00    +0.000 OA
ATOM     28  C   UNL     1      -9.283  -7.005  18.068  0.00  0.00    +0.000 C 
ATOM     29  N   UNL     1      -9.191  -7.894  17.003  0.00  0.00    +0.000 N 
ATOM     30  H   UNL     1      -9.086  -7.572  16.048  0.00  0.00    +0.000 HD
BRANCH  29  31
ATOM     31  N   UNL     1      -9.364  -9.223  17.266  0.00  0.00    +0.000 NA
ATOM     32  C   UNL     1      -8.504 -10.049  16.764  0.00  0.00    +0.000 C 
ATOM     33  H   UNL     1      -7.650  -9.699  16.158  0.00  0.00    +0.000 HD
BRANCH  32  34
ATOM     34  C   UNL     1      -8.651 -11.508  16.971  0.00  0.00    +0.000 A 
ATOM     35  C   UNL     1      -8.683 -12.371  15.868  0.00  0.00    +0.000 A 
ATOM     36  C   UNL     1      -8.792 -13.746  16.067  0.00  0.00    +0.000 A 
ATOM     37 CL   UNL     1      -8.836 -14.812  14.719  0.00  0.00    +0.000 Cl
ATOM     38  C   UNL     1      -8.869 -14.269  17.362  0.00  0.00    +0.000 A 
ATOM     39  C   UNL     1      -8.839 -13.410  18.463  0.00  0.00    +0.000 A 
ATOM     40  C   UNL     1      -8.733 -12.033  18.267  0.00  0.00    +0.000 A 
ATOM     41  H   UNL     1      -8.615 -11.975  14.857  0.00  0.00    +0.000 HD
ATOM     42  H   UNL     1      -8.949 -15.343  17.513  0.00  0.00    +0.000 HD
ATOM     43  H   UNL     1      -8.893 -13.838  19.461  0.00  0.00    +0.000 HD
BRANCH  40  44
ATOM     44  O   UNL     1      -8.704 -11.195  19.346  0.00  0.00    +0.000 OA
ATOM     45  H   UNL     1      -9.574 -10.773  19.448  0.00  0.00    +0.000 HD
ENDBRANCH  40  44
ENDBRANCH  32  34
ENDBRANCH  29  31
ENDBRANCH  24  28
ENDBRANCH   1  24
TORSDOF 5
ENDMDL
MODEL 5
REMARK VINA RESULT:   -10.076      1.734      4.089
REMARK INTER + INTRA:         -13.222
REMARK INTER:                 -13.626
REMARK INTRA:                   0.404
REMARK UNBOUND:                -0.495
REMARK  Name = 
REMARK  5 active torsions:
REMARK  status: ('A' for Active; 'I' for Inactive)
REMARK    1  A    between atoms: C_2  and  C_3
REMARK    2  A    between atoms: C_3  and  N_4
REMARK    3  A    between atoms: N_19  and  N_20
REMARK    4  A    between atoms: C_21  and  C_22
REMARK    5  A    between atoms: C_28  and  O_29
REMARK                            x       y       z     vdW  Elec       q    Type
REMARK                         _______ _______ _______ _____ _____    ______ ____
ROOT
ATOM      1  N   UNL     1      -8.985  -3.521  19.728  0.00  0.00    +0.000 N 
ATOM      2  C   UNL     1      -9.808  -2.668  20.517  0.00  0.00    +0.000 A 
ATOM      3  C   UNL     1     -11.155  -2.384  20.232  0.00  0.00    +0.000 A 
ATOM      4  C   UNL     1     -11.917  -1.506  21.016  0.00  0.00    +0.000 A 
ATOM      5  C   UNL     1     -11.365  -0.909  22.141  0.00  0.00    +0.000 A 
ATOM      6  C   UNL     1     -10.050  -1.197  22.482  0.00  0.00    +0.000 A 
ATOM      7  C   UNL     1      -9.287  -2.060  21.676  0.00  0.00    +0.000 A 
ATOM      8  C   UNL     1      -7.896  -2.335  22.075  0.00  0.00    +0.000 A 
ATOM      9  O   UNL     1      -7.404  -1.790  23.060  0.00  0.00    +0.000 OA
ATOM     10  C   UNL     1      -7.114  -3.309  21.289  0.00  0.00    +0.000 A 
ATOM     11  C   UNL     1      -5.814  -3.619  21.727  0.00  0.00    +0.000 A 
ATOM     12  C   UNL     1      -5.066  -4.580  21.063  0.00  0.00    +0.000 A 
ATOM     13  C   UNL     1      -5.632  -5.246  19.984  0.00  0.00    +0.000 A 
ATOM     14  C   UNL     1      -6.925  -4.925  19.544  0.00  0.00    +0.000 A 
ATOM     15  C   UNL     1      -7.694  -3.920  20.158  0.00  0.00    +0.000 A 
ATOM     16  H   UNL     1     -11.675  -2.834  19.391  0.00  0.00    +0.000 HD
ATOM     17  H   UNL     1     -12.947  -1.293  20.736  0.00  0.00    +0.000 HD
ATOM     18  H   UNL     1     -11.956  -0.232  22.751  0.00  0.00    +0.000 HD
ATOM     19  H   UNL     1      -9.616  -0.750  23.372  0.00  0.00    +0.000 HD
ATOM     20  H   UNL     1      -5.394  -3.113  22.595  0.00  0.00    +0.000 HD
ATOM     21  H   UNL     1      -4.063  -4.823  21.400  0.00  0.00    +0.000 HD
ATOM     22  H   UNL     1      -5.070  -6.033  19.484  0.00  0.00    +0.000 HD
ATOM     23  H   UNL     1      -7.298  -5.526  18.724  0.00  0.00    +0.000 HD
ENDROOT
BRANCH   1  24
ATOM     24  C   UNL     1      -9.551  -4.066  18.467  0.00  0.00    +0.000 C 
ATOM     25  H   UNL     1     -10.608  -3.841  18.318  0.00  0.00    +0.000 HD
ATOM     26  H   UNL     1      -9.051  -3.606  17.605  0.00  0.00    +0.000 HD
BRANCH  24  28
ATOM     27  O   UNL     1      -9.976  -6.334  19.165  0.00  0.00    +0.000 OA
ATOM     28  C   UNL     1      -9.453  -5.590  18.335  0.00  0.00    +0.000 C 
ATOM     29  N   UNL     1      -8.667  -6.040  17.280  0.00  0.00    +0.000 N 
ATOM     30  H   UNL     1      -8.314  -5.407  16.571  0.00  0.00    +0.000 HD
BRANCH  29  31
ATOM     31  N   UNL     1      -8.477  -7.387  17.157  0.00  0.00    +0.000 NA
ATOM     32  C   UNL     1      -9.140  -8.002  16.232  0.00  0.00    +0.000 C 
ATOM     33  H   UNL     1      -9.824  -7.463  15.553  0.00  0.00    +0.000 HD
BRANCH  32  34
ATOM     34  C   UNL     1      -9.019  -9.469  16.068  0.00  0.00    +0.000 A 
ATOM     35  C   UNL     1      -8.894 -10.292  17.194  0.00  0.00    +0.000 A 
ATOM     36  C   UNL     1      -8.809 -11.674  17.038  0.00  0.00    +0.000 A 
ATOM     37 CL   UNL     1      -8.652 -12.690  18.415  0.00  0.00    +0.000 Cl
ATOM     38  C   UNL     1      -8.850 -12.244  15.761  0.00  0.00    +0.000 A 
ATOM     39  C   UNL     1      -8.972 -11.426  14.636  0.00  0.00    +0.000 A 
ATOM     40  C   UNL     1      -9.054 -10.041  14.790  0.00  0.00    +0.000 A 
ATOM     41  H   UNL     1      -8.870  -9.858  18.193  0.00  0.00    +0.000 HD
ATOM     42  H   UNL     1      -8.789 -13.324  15.644  0.00  0.00    +0.000 HD
ATOM     43  H   UNL     1      -9.009 -11.890  13.653  0.00  0.00    +0.000 HD
BRANCH  40  44
ATOM     44  O   UNL     1      -9.174  -9.243  13.687  0.00  0.00    +0.000 OA
ATOM     45  H   UNL     1      -8.984  -8.322  13.935  0.00  0.00    +0.000 HD
ENDBRANCH  40  44
ENDBRANCH  32  34
ENDBRANCH  29  31
ENDBRANCH  24  28
ENDBRANCH   1  24
TORSDOF 5
ENDMDL
MODEL 6
REMARK VINA RESULT:   -10.067      1.741      2.318
REMARK INTER + INTRA:         -13.210
REMARK INTER:                 -13.677
REMARK INTRA:                   0.467
REMARK UNBOUND:                -0.495
REMARK  Name = 
REMARK  5 active torsions:
REMARK  status: ('A' for Active; 'I' for Inactive)
REMARK    1  A    between atoms: C_2  and  C_3
REMARK    2  A    between atoms: C_3  and  N_4
REMARK    3  A    between atoms: N_19  and  N_20
REMARK    4  A    between atoms: C_21  and  C_22
REMARK    5  A    between atoms: C_28  and  O_29
REMARK                            x       y       z     vdW  Elec       q    Type
REMARK                         _______ _______ _______ _____ _____    ______ ____
ROOT
ATOM      1  N   UNL     1     -10.237  -4.672  17.182  0.00  0.00    +0.000 N 
ATOM      2  C   UNL     1      -9.201  -5.090  18.064  0.00  0.00    +0.000 A 
ATOM      3  C   UNL     1      -8.467  -6.280  17.914  0.00  0.00    +0.000 A 
ATOM      4  C   UNL     1      -7.480  -6.670  18.831  0.00  0.00    +0.000 A 
ATOM      5  C   UNL     1      -7.165  -5.860  19.914  0.00  0.00    +0.000 A 
ATOM      6  C   UNL     1      -7.838  -4.656  20.073  0.00  0.00    +0.000 A 
ATOM      7  C   UNL     1      -8.842  -4.284  19.163  0.00  0.00    +0.000 A 
ATOM      8  C   UNL     1      -9.530  -2.999  19.372  0.00  0.00    +0.000 A 
ATOM      9  O   UNL     1      -9.263  -2.293  20.342  0.00  0.00    +0.000 OA
ATOM     10  C   UNL     1     -10.521  -2.555  18.373  0.00  0.00    +0.000 A 
ATOM     11  C   UNL     1     -11.113  -1.291  18.547  0.00  0.00    +0.000 A 
ATOM     12  C   UNL     1     -11.997  -0.800  17.597  0.00  0.00    +0.000 A 
ATOM     13  C   UNL     1     -12.262  -1.562  16.467  0.00  0.00    +0.000 A 
ATOM     14  C   UNL     1     -11.678  -2.828  16.305  0.00  0.00    +0.000 A 
ATOM     15  C   UNL     1     -10.818  -3.382  17.270  0.00  0.00    +0.000 A 
ATOM     16  H   UNL     1      -8.625  -6.955  17.079  0.00  0.00    +0.000 HD
ATOM     17  H   UNL     1      -6.961  -7.616  18.690  0.00  0.00    +0.000 HD
ATOM     18  H   UNL     1      -6.398  -6.161  20.622  0.00  0.00    +0.000 HD
ATOM     19  H   UNL     1      -7.584  -4.006  20.907  0.00  0.00    +0.000 HD
ATOM     20  H   UNL     1     -10.871  -0.689  19.421  0.00  0.00    +0.000 HD
ATOM     21  H   UNL     1     -12.454   0.176  17.727  0.00  0.00    +0.000 HD
ATOM     22  H   UNL     1     -12.920  -1.167  15.695  0.00  0.00    +0.000 HD
ATOM     23  H   UNL     1     -11.909  -3.329  15.373  0.00  0.00    +0.000 HD
ENDROOT
BRANCH   1  24
ATOM     24  C   UNL     1     -10.641  -5.598  16.092  0.00  0.00    +0.000 C 
ATOM     25  H   UNL     1     -11.600  -5.355  15.631  0.00  0.00    +0.000 HD
ATOM     26  H   UNL     1      -9.920  -5.539  15.267  0.00  0.00    +0.000 HD
BRANCH  24  28
ATOM     27  O   UNL     1     -11.436  -7.376  17.513  0.00  0.00    +0.000 OA
ATOM     28  C   UNL     1     -10.774  -7.063  16.523  0.00  0.00    +0.000 C 
ATOM     29  N   UNL     1     -10.028  -7.967  15.775  0.00  0.00    +0.000 N 
ATOM     30  H   UNL     1      -9.556  -7.690  14.922  0.00  0.00    +0.000 HD
BRANCH  29  31
ATOM     31  N   UNL     1     -10.043  -9.277  16.160  0.00  0.00    +0.000 NA
ATOM     32  C   UNL     1      -8.904  -9.874  16.295  0.00  0.00    +0.000 C 
ATOM     33  H   UNL     1      -7.949  -9.346  16.124  0.00  0.00    +0.000 HD
BRANCH  32  34
ATOM     34  C   UNL     1      -8.843 -11.306  16.667  0.00  0.00    +0.000 A 
ATOM     35  C   UNL     1      -8.799 -12.287  15.669  0.00  0.00    +0.000 A 
ATOM     36  C   UNL     1      -8.713 -13.633  16.022  0.00  0.00    +0.000 A 
ATOM     37 CL   UNL     1      -8.664 -14.843  14.802  0.00  0.00    +0.000 Cl
ATOM     38  C   UNL     1      -8.668 -14.009  17.368  0.00  0.00    +0.000 A 
ATOM     39  C   UNL     1      -8.713 -13.032  18.366  0.00  0.00    +0.000 A 
ATOM     40  C   UNL     1      -8.802 -11.685  18.015  0.00  0.00    +0.000 A 
ATOM     41  H   UNL     1      -8.826 -12.005  14.618  0.00  0.00    +0.000 HD
ATOM     42  H   UNL     1      -8.595 -15.060  17.639  0.00  0.00    +0.000 HD
ATOM     43  H   UNL     1      -8.669 -13.346  19.406  0.00  0.00    +0.000 HD
BRANCH  40  44
ATOM     44  O   UNL     1      -8.846 -10.731  18.994  0.00  0.00    +0.000 OA
ATOM     45  H   UNL     1      -8.001 -10.726  19.475  0.00  0.00    +0.000 HD
ENDBRANCH  40  44
ENDBRANCH  32  34
ENDBRANCH  29  31
ENDBRANCH  24  28
ENDBRANCH   1  24
TORSDOF 5
ENDMDL
MODEL 7
REMARK VINA RESULT:   -10.018      2.430      4.412
REMARK INTER + INTRA:         -13.149
REMARK INTER:                 -13.134
REMARK INTRA:                  -0.015
REMARK UNBOUND:                -0.495
REMARK  Name = 
REMARK  5 active torsions:
REMARK  status: ('A' for Active; 'I' for Inactive)
REMARK    1  A    between atoms: C_2  and  C_3
REMARK    2  A    between atoms: C_3  and  N_4
REMARK    3  A    between atoms: N_19  and  N_20
REMARK    4  A    between atoms: C_21  and  C_22
REMARK    5  A    between atoms: C_28  and  O_29
REMARK                            x       y       z     vdW  Elec       q    Type
REMARK                         _______ _______ _______ _____ _____    ______ ____
ROOT
ATOM      1  N   UNL     1      -8.452  -3.010  21.342  0.00  0.00    +0.000 N 
ATOM      2  C   UNL     1      -9.343  -2.658  20.289  0.00  0.00    +0.000 A 
ATOM      3  C   UNL     1      -9.099  -2.915  18.928  0.00  0.00    +0.000 A 
ATOM      4  C   UNL     1      -9.989  -2.516  17.921  0.00  0.00    +0.000 A 
ATOM      5  C   UNL     1     -11.178  -1.876  18.244  0.00  0.00    +0.000 A 
ATOM      6  C   UNL     1     -11.475  -1.642  19.580  0.00  0.00    +0.000 A 
ATOM      7  C   UNL     1     -10.567  -2.024  20.582  0.00  0.00    +0.000 A 
ATOM      8  C   UNL     1     -10.923  -1.754  21.985  0.00  0.00    +0.000 A 
ATOM      9  O   UNL     1     -11.967  -1.170  22.268  0.00  0.00    +0.000 OA
ATOM     10  C   UNL     1     -10.021  -2.233  23.050  0.00  0.00    +0.000 A 
ATOM     11  C   UNL     1     -10.413  -2.035  24.386  0.00  0.00    +0.000 A 
ATOM     12  C   UNL     1      -9.632  -2.530  25.421  0.00  0.00    +0.000 A 
ATOM     13  C   UNL     1      -8.481  -3.243  25.114  0.00  0.00    +0.000 A 
ATOM     14  C   UNL     1      -8.088  -3.427  23.779  0.00  0.00    +0.000 A 
ATOM     15  C   UNL     1      -8.825  -2.896  22.705  0.00  0.00    +0.000 A 
ATOM     16  H   UNL     1      -8.211  -3.440  18.589  0.00  0.00    +0.000 HD
ATOM     17  H   UNL     1      -9.741  -2.709  16.878  0.00  0.00    +0.000 HD
ATOM     18  H   UNL     1     -11.869  -1.569  17.464  0.00  0.00    +0.000 HD
ATOM     19  H   UNL     1     -12.413  -1.159  19.844  0.00  0.00    +0.000 HD
ATOM     20  H   UNL     1     -11.335  -1.503  24.613  0.00  0.00    +0.000 HD
ATOM     21  H   UNL     1      -9.933  -2.381  26.454  0.00  0.00    +0.000 HD
ATOM     22  H   UNL     1      -7.885  -3.673  25.917  0.00  0.00    +0.000 HD
ATOM     23  H   UNL     1      -7.202  -4.032  23.636  0.00  0.00    +0.000 HD
ENDROOT
BRANCH   1  24
ATOM     24  C   UNL     1      -7.135  -3.593  20.976  0.00  0.00    +0.000 C 
ATOM     25  H   UNL     1      -6.552  -2.983  20.284  0.00  0.00    +0.000 HD
ATOM     26  H   UNL     1      -6.502  -3.672  21.870  0.00  0.00    +0.000 HD
BRANCH  24  28
ATOM     27  O   UNL     1      -6.340  -5.353  19.533  0.00  0.00    +0.000 OA
ATOM     28  C   UNL     1      -7.216  -4.972  20.310  0.00  0.00    +0.000 C 
ATOM     29  N   UNL     1      -8.375  -5.690  20.582  0.00  0.00    +0.000 N 
ATOM     30  H   UNL     1      -9.039  -5.384  21.284  0.00  0.00    +0.000 HD
BRANCH  29  31
ATOM     31  N   UNL     1      -8.540  -6.892  19.955  0.00  0.00    +0.000 NA
ATOM     32  C   UNL     1      -9.113  -6.888  18.795  0.00  0.00    +0.000 C 
ATOM     33  H   UNL     1      -9.443  -5.949  18.315  0.00  0.00    +0.000 HD
BRANCH  32  34
ATOM     34  C   UNL     1      -9.365  -8.157  18.075  0.00  0.00    +0.000 A 
ATOM     35  C   UNL     1      -8.747  -9.339  18.502  0.00  0.00    +0.000 A 
ATOM     36  C   UNL     1      -9.009 -10.537  17.840  0.00  0.00    +0.000 A 
ATOM     37 CL   UNL     1      -8.250 -11.991  18.356  0.00  0.00    +0.000 Cl
ATOM     38  C   UNL     1      -9.888 -10.566  16.753  0.00  0.00    +0.000 A 
ATOM     39  C   UNL     1     -10.505  -9.389  16.324  0.00  0.00    +0.000 A 
ATOM     40  C   UNL     1     -10.242  -8.187  16.983  0.00  0.00    +0.000 A 
ATOM     41  H   UNL     1      -8.067  -9.328  19.352  0.00  0.00    +0.000 HD
ATOM     42  H   UNL     1     -10.094 -11.505  16.243  0.00  0.00    +0.000 HD
ATOM     43  H   UNL     1     -11.190  -9.435  15.481  0.00  0.00    +0.000 HD
BRANCH  40  44
ATOM     44  O   UNL     1     -10.847  -7.036  16.561  0.00  0.00    +0.000 OA
ATOM     45  H   UNL     1     -11.721  -6.961  16.981  0.00  0.00    +0.000 HD
ENDBRANCH  40  44
ENDBRANCH  32  34
ENDBRANCH  29  31
ENDBRANCH  24  28
ENDBRANCH   1  24
TORSDOF 5
ENDMDL
MODEL 8
REMARK VINA RESULT:   -10.001      2.399      4.020
REMARK INTER + INTRA:         -13.128
REMARK INTER:                 -12.659
REMARK INTRA:                  -0.468
REMARK UNBOUND:                -0.495
REMARK  Name = 
REMARK  5 active torsions:
REMARK  status: ('A' for Active; 'I' for Inactive)
REMARK    1  A    between atoms: C_2  and  C_3
REMARK    2  A    between atoms: C_3  and  N_4
REMARK    3  A    between atoms: N_19  and  N_20
REMARK    4  A    between atoms: C_21  and  C_22
REMARK    5  A    between atoms: C_28  and  O_29
REMARK                            x       y       z     vdW  Elec       q    Type
REMARK                         _______ _______ _______ _____ _____    ______ ____
ROOT
ATOM      1  N   UNL     1      -8.505  -2.965  21.235  0.00  0.00    +0.000 N 
ATOM      2  C   UNL     1      -8.672  -3.004  22.648  0.00  0.00    +0.000 A 
ATOM      3  C   UNL     1      -7.739  -3.564  23.539  0.00  0.00    +0.000 A 
ATOM      4  C   UNL     1      -7.963  -3.615  24.922  0.00  0.00    +0.000 A 
ATOM      5  C   UNL     1      -9.116  -3.069  25.469  0.00  0.00    +0.000 A 
ATOM      6  C   UNL     1     -10.043  -2.468  24.627  0.00  0.00    +0.000 A 
ATOM      7  C   UNL     1      -9.821  -2.443  23.239  0.00  0.00    +0.000 A 
ATOM      8  C   UNL     1     -10.832  -1.797  22.384  0.00  0.00    +0.000 A 
ATOM      9  O   UNL     1     -11.861  -1.332  22.869  0.00  0.00    +0.000 OA
ATOM     10  C   UNL     1     -10.567  -1.684  20.937  0.00  0.00    +0.000 A 
ATOM     11  C   UNL     1     -11.505  -0.996  20.146  0.00  0.00    +0.000 A 
ATOM     12  C   UNL     1     -11.266  -0.803  18.794  0.00  0.00    +0.000 A 
ATOM     13  C   UNL     1     -10.080  -1.271  18.246  0.00  0.00    +0.000 A 
ATOM     14  C   UNL     1      -9.153  -1.967  19.037  0.00  0.00    +0.000 A 
ATOM     15  C   UNL     1      -9.382  -2.229  20.400  0.00  0.00    +0.000 A 
ATOM     16  H   UNL     1      -6.796  -3.984  23.200  0.00  0.00    +0.000 HD
ATOM     17  H   UNL     1      -7.226  -4.088  25.568  0.00  0.00    +0.000 HD
ATOM     18  H   UNL     1      -9.289  -3.105  26.541  0.00  0.00    +0.000 HD
ATOM     19  H   UNL     1     -10.940  -2.020  25.048  0.00  0.00    +0.000 HD
ATOM     20  H   UNL     1     -12.416  -0.604  20.595  0.00  0.00    +0.000 HD
ATOM     21  H   UNL     1     -11.988  -0.270  18.181  0.00  0.00    +0.000 HD
ATOM     22  H   UNL     1      -9.863  -1.086  17.195  0.00  0.00    +0.000 HD
ATOM     23  H   UNL     1      -8.239  -2.256  18.534  0.00  0.00    +0.000 HD
ENDROOT
BRANCH   1  24
ATOM     24  C   UNL     1      -7.322  -3.650  20.652  0.00  0.00    +0.000 C 
ATOM     25  H   UNL     1      -6.943  -3.190  19.739  0.00  0.00    +0.000 HD
ATOM     26  H   UNL     1      -6.479  -3.597  21.354  0.00  0.00    +0.000 HD
BRANCH  24  28
ATOM     27  O   UNL     1      -6.639  -5.936  20.306  0.00  0.00    +0.000 OA
ATOM     28  C   UNL     1      -7.560  -5.119  20.282  0.00  0.00    +0.000 C 
ATOM     29  N   UNL     1      -8.845  -5.414  19.841  0.00  0.00    +0.000 N 
ATOM     30  H   UNL     1      -9.598  -4.740  19.906  0.00  0.00    +0.000 HD
BRANCH  29  31
ATOM     31  N   UNL     1      -9.096  -6.690  19.422  0.00  0.00    +0.000 NA
ATOM     32  C   UNL     1      -8.922  -6.952  18.168  0.00  0.00    +0.000 C 
ATOM     33  H   UNL     1      -8.567  -6.184  17.459  0.00  0.00    +0.000 HD
BRANCH  32  34
ATOM     34  C   UNL     1      -9.216  -8.302  17.633  0.00  0.00    +0.000 A 
ATOM     35  C   UNL     1      -8.708  -9.437  18.279  0.00  0.00    +0.000 A 
ATOM     36  C   UNL     1      -9.011 -10.706  17.790  0.00  0.00    +0.000 A 
ATOM     37 CL   UNL     1      -8.388 -12.103  18.573  0.00  0.00    +0.000 Cl
ATOM     38  C   UNL     1      -9.821 -10.853  16.659  0.00  0.00    +0.000 A 
ATOM     39  C   UNL     1     -10.327  -9.724  16.013  0.00  0.00    +0.000 A 
ATOM     40  C   UNL     1     -10.023  -8.451  16.498  0.00  0.00    +0.000 A 
ATOM     41  H   UNL     1      -8.084  -9.333  19.164  0.00  0.00    +0.000 HD
ATOM     42  H   UNL     1     -10.059 -11.846  16.284  0.00  0.00    +0.000 HD
ATOM     43  H   UNL     1     -10.961  -9.860  15.140  0.00  0.00    +0.000 HD
BRANCH  40  44
ATOM     44  O   UNL     1     -10.520  -7.347  15.864  0.00  0.00    +0.000 OA
ATOM     45  H   UNL     1      -9.896  -6.609  15.968  0.00  0.00    +0.000 HD
ENDBRANCH  40  44
ENDBRANCH  32  34
ENDBRANCH  29  31
ENDBRANCH  24  28
ENDBRANCH   1  24
TORSDOF 5
ENDMDL
MODEL 9
REMARK VINA RESULT:    -9.832      1.866      4.012
REMARK INTER + INTRA:         -12.913
REMARK INTER:                 -13.512
REMARK INTRA:                   0.598
REMARK UNBOUND:                -0.495
REMARK  Name = 
REMARK  5 active torsions:
REMARK  status: ('A' for Active; 'I' for Inactive)
REMARK    1  A    between atoms: C_2  and  C_3
REMARK    2  A    between atoms: C_3  and  N_4
REMARK    3  A    between atoms: N_19  and  N_20
REMARK    4  A    between atoms: C_21  and  C_22
REMARK    5  A    between atoms: C_28  and  O_29
REMARK                            x       y       z     vdW  Elec       q    Type
REMARK                         _______ _______ _______ _____ _____    ______ ____
ROOT
ATOM      1  N   UNL     1     -10.112  -4.677  17.040  0.00  0.00    +0.000 N 
ATOM      2  C   UNL     1     -10.862  -3.467  17.070  0.00  0.00    +0.000 A 
ATOM      3  C   UNL     1     -11.857  -3.130  16.135  0.00  0.00    +0.000 A 
ATOM      4  C   UNL     1     -12.544  -1.909  16.182  0.00  0.00    +0.000 A 
ATOM      5  C   UNL     1     -12.285  -0.993  17.193  0.00  0.00    +0.000 A 
ATOM      6  C   UNL     1     -11.339  -1.307  18.159  0.00  0.00    +0.000 A 
ATOM      7  C   UNL     1     -10.638  -2.524  18.092  0.00  0.00    +0.000 A 
ATOM      8  C   UNL     1      -9.642  -2.813  19.138  0.00  0.00    +0.000 A 
ATOM      9  O   UNL     1      -9.400  -1.992  20.020  0.00  0.00    +0.000 OA
ATOM     10  C   UNL     1      -8.967  -4.125  19.129  0.00  0.00    +0.000 A 
ATOM     11  C   UNL     1      -8.076  -4.415  20.178  0.00  0.00    +0.000 A 
ATOM     12  C   UNL     1      -7.471  -5.661  20.251  0.00  0.00    +0.000 A 
ATOM     13  C   UNL     1      -7.781  -6.618  19.294  0.00  0.00    +0.000 A 
ATOM     14  C   UNL     1      -8.661  -6.318  18.242  0.00  0.00    +0.000 A 
ATOM     15  C   UNL     1      -9.254  -5.050  18.104  0.00  0.00    +0.000 A 
ATOM     16  H   UNL     1     -12.147  -3.801  15.332  0.00  0.00    +0.000 HD
ATOM     17  H   UNL     1     -13.284  -1.680  15.417  0.00  0.00    +0.000 HD
ATOM     18  H   UNL     1     -12.819  -0.048  17.231  0.00  0.00    +0.000 HD
ATOM     19  H   UNL     1     -11.143  -0.604  18.966  0.00  0.00    +0.000 HD
ATOM     20  H   UNL     1      -7.867  -3.668  20.941  0.00  0.00    +0.000 HD
ATOM     21  H   UNL     1      -6.784  -5.890  21.061  0.00  0.00    +0.000 HD
ATOM     22  H   UNL     1      -7.345  -7.613  19.368  0.00  0.00    +0.000 HD
ATOM     23  H   UNL     1      -8.876  -7.139  17.570  0.00  0.00    +0.000 HD
ENDROOT
BRANCH   1  24
ATOM     24  C   UNL     1     -10.319  -5.598  15.892  0.00  0.00    +0.000 C 
ATOM     25  H   UNL     1     -11.182  -5.352  15.272  0.00  0.00    +0.000 HD
ATOM     26  H   UNL     1      -9.464  -5.536  15.206  0.00  0.00    +0.000 HD
BRANCH  24  28
ATOM     27  O   UNL     1     -11.274  -7.373  17.214  0.00  0.00    +0.000 OA
ATOM     28  C   UNL     1     -10.525  -7.065  16.287  0.00  0.00    +0.000 C 
ATOM     29  N   UNL     1      -9.745  -7.978  15.587  0.00  0.00    +0.000 N 
ATOM     30  H   UNL     1      -9.198  -7.703  14.779  0.00  0.00    +0.000 HD
BRANCH  29  31
ATOM     31  N   UNL     1      -9.827  -9.293  15.947  0.00  0.00    +0.000 NA
ATOM     32  C   UNL     1      -8.743  -9.870  16.354  0.00  0.00    +0.000 C 
ATOM     33  H   UNL     1      -7.787  -9.322  16.425  0.00  0.00    +0.000 HD
BRANCH  32  34
ATOM     34  C   UNL     1      -8.745 -11.305  16.720  0.00  0.00    +0.000 A 
ATOM     35  C   UNL     1      -8.722 -12.283  15.717  0.00  0.00    +0.000 A 
ATOM     36  C   UNL     1      -8.695 -13.632  16.065  0.00  0.00    +0.000 A 
ATOM     37 CL   UNL     1      -8.670 -14.838  14.840  0.00  0.00    +0.000 Cl
ATOM     38  C   UNL     1      -8.689 -14.015  17.410  0.00  0.00    +0.000 A 
ATOM     39  C   UNL     1      -8.714 -13.042  18.411  0.00  0.00    +0.000 A 
ATOM     40  C   UNL     1      -8.744 -11.691  18.066  0.00  0.00    +0.000 A 
ATOM     41  H   UNL     1      -8.718 -11.995  14.667  0.00  0.00    +0.000 HD
ATOM     42  H   UNL     1      -8.662 -15.069  17.677  0.00  0.00    +0.000 HD
ATOM     43  H   UNL     1      -8.702 -13.361  19.451  0.00  0.00    +0.000 HD
BRANCH  40  44
ATOM     44  O   UNL     1      -8.769 -10.740  19.049  0.00  0.00    +0.000 OA
ATOM     45  H   UNL     1      -8.745  -9.857  18.642  0.00  0.00    +0.000 HD
ENDBRANCH  40  44
ENDBRANCH  32  34
ENDBRANCH  29  31
ENDBRANCH  24  28
ENDBRANCH   1  24
TORSDOF 5
ENDMDL
