
 OpenBabel01112423063D

 33 35  0  0  0  0  0  0  0  0999 V2000
    1.0342    0.2566    0.3991 N   0  0  0  0  0  0  0  0  0  0  0  0
    2.3800    0.1671   -0.0294 C   0  0  0  0  0  0  0  0  0  0  0  0
    3.2030    1.3164   -0.0479 C   0  0  0  0  0  0  0  0  0  0  0  0
    2.5961    2.5563    0.2551 N   0  0  0  0  0  0  0  0  0  0  0  0
    3.2294    3.7536    0.1868 C   0  0  0  0  0  0  0  0  0  0  0  0
    4.2283    4.0772   -0.6043 N   0  0  0  0  0  0  0  0  0  0  0  0
    4.6214    5.3826   -0.3775 C   0  0  0  0  0  0  0  0  0  0  0  0
    3.9005    6.0614    0.5782 C   0  0  0  0  0  0  0  0  0  0  0  0
    2.6845    5.0390    1.2104 S   0  0  0  0  0  0  0  0  0  0  0  0
    4.5171    1.2449   -0.3383 N   0  0  0  0  0  0  0  0  0  0  0  0
    5.0320    0.0326   -0.5546 C   0  0  0  0  0  0  0  0  0  0  0  0
    4.3363   -1.0945   -0.4848 N   0  3  0  0  0  0  0  0  0  0  0  0
    3.0240   -1.0751   -0.2089 C   0  0  0  0  0  0  0  0  0  0  0  0
    2.3429   -2.3000   -0.0749 N   0  0  0  0  0  0  0  0  0  0  0  0
    2.9491   -3.5559    0.1247 C   0  0  0  0  0  0  0  0  0  0  0  0
    3.9673   -3.7075    1.0817 C   0  0  0  0  0  0  0  0  0  0  0  0
    4.7082   -4.8856    1.1586 C   0  0  0  0  0  0  0  0  0  0  0  0
    4.4220   -5.9337    0.2895 C   0  0  0  0  0  0  0  0  0  0  0  0
    5.4729   -7.5013    0.3411 Br  0  0  0  0  0  0  0  0  0  0  0  0
    3.3786   -5.8228   -0.6278 C   0  0  0  0  0  0  0  0  0  0  0  0
    2.6424   -4.6356   -0.7095 C   0  0  0  0  0  0  0  0  0  0  0  0
    0.5645    1.1081    0.0781 H   0  0  0  0  0  0  0  0  0  0  0  0
    0.4496   -0.5613    0.2726 H   0  0  0  0  0  0  0  0  0  0  0  0
    1.9552    2.4631    1.0366 H   0  0  0  0  0  0  0  0  0  0  0  0
    5.4487    5.7946   -0.9431 H   0  0  0  0  0  0  0  0  0  0  0  0
    4.0243    7.0790    0.9203 H   0  0  0  0  0  0  0  0  0  0  0  0
    6.0904   -0.0378   -0.7799 H   0  0  0  0  0  0  0  0  0  0  0  0
    4.7948   -1.9841   -0.6440 H   0  0  0  0  0  0  0  0  0  0  0  0
    1.4746   -2.3354   -0.6078 H   0  0  0  0  0  0  0  0  0  0  0  0
    4.1843   -2.9108    1.7917 H   0  0  0  0  0  0  0  0  0  0  0  0
    5.4998   -4.9798    1.8982 H   0  0  0  0  0  0  0  0  0  0  0  0
    3.1408   -6.6523   -1.2918 H   0  0  0  0  0  0  0  0  0  0  0  0
    1.8470   -4.5707   -1.4502 H   0  0  0  0  0  0  0  0  0  0  0  0
  1  2  1  0  0  0  0
  1 22  1  0  0  0  0
  1 23  1  0  0  0  0
  2  3  1  0  0  0  0
  2 13  2  0  0  0  0
  3  4  1  0  0  0  0
  3 10  2  0  0  0  0
  4  5  1  0  0  0  0
  4 24  1  0  0  0  0
  5  6  2  0  0  0  0
  5  9  1  0  0  0  0
  6  7  1  0  0  0  0
  7  8  2  0  0  0  0
  7 25  1  0  0  0  0
  8  9  1  0  0  0  0
  8 26  1  0  0  0  0
 10 11  1  0  0  0  0
 11 12  2  0  0  0  0
 11 27  1  0  0  0  0
 12 13  1  0  0  0  0
 12 28  1  0  0  0  0
 13 14  1  0  0  0  0
 14 15  1  0  0  0  0
 14 29  1  0  0  0  0
 15 16  1  0  0  0  0
 15 21  2  0  0  0  0
 16 17  2  0  0  0  0
 16 30  1  0  0  0  0
 17 18  1  0  0  0  0
 17 31  1  0  0  0  0
 18 19  1  0  0  0  0
 18 20  2  0  0  0  0
 20 21  1  0  0  0  0
 20 32  1  0  0  0  0
 21 33  1  0  0  0  0
M  CHG  1  12   1
M  END
$$$$
