
 OpenBabel01112423093D

 52 52  0  0  1  0  0  0  0  0999 V2000
    8.5635    2.1850    6.2538 C   0  0  0  0  0  0  0  0  0  0  0  0
    8.9422    3.3232    5.3030 C   0  0  0  0  0  0  0  0  0  0  0  0
    7.7316    4.1889    4.9226 C   0  0  0  0  0  0  0  0  0  0  0  0
    9.9642    4.2207    6.0357 C   0  0  0  0  0  0  0  0  0  0  0  0
    9.5899    2.7705    4.1138 O   0  0  0  0  0  0  0  0  0  0  0  0
    8.8782    1.9448    3.3054 C   0  0  0  0  0  0  0  0  0  0  0  0
    7.7145    1.6064    3.4534 O   0  0  0  0  0  0  0  0  0  0  0  0
    9.6745    1.4965    2.2830 N   0  0  0  0  0  0  0  0  0  0  0  0
    9.3114    0.3282    1.4663 C   0  0  1  0  0  0  0  0  0  0  0  0
    7.9197    0.3862    0.7991 C   0  0  0  0  0  0  0  0  0  0  0  0
    7.8285    1.4521   -0.2895 C   0  0  0  0  0  0  0  0  0  0  0  0
    8.9209    1.2510   -1.3406 C   0  0  0  0  0  0  0  0  0  0  0  0
   10.3314    1.1770   -0.7314 C   0  0  1  0  0  0  0  0  0  0  0  0
   10.7029    2.5279   -0.1753 N   0  3  0  0  0  0  0  0  0  0  0  0
   12.0797    2.6619    0.4427 C   0  0  0  0  0  0  0  0  0  0  0  0
   12.3072    4.0929    0.9898 C   0  0  2  0  0  0  0  0  0  0  0  0
   11.2622    4.5290    2.0223 C   0  0  0  0  0  0  0  0  0  0  0  0
   12.2046    4.9815   -0.1304 O   0  0  0  0  0  0  0  0  0  0  0  0
   13.7086    4.1527    1.6349 C   0  0  0  0  0  0  0  0  0  0  0  0
   13.7826    3.2398    2.7255 O   0  0  0  0  0  0  0  0  0  0  0  0
   10.3737    0.1060    0.3746 C   0  0  0  0  0  0  0  0  0  0  0  0
    8.1110    2.5661    7.1733 H   0  0  0  0  0  0  0  0  0  0  0  0
    9.4515    1.5966    6.5131 H   0  0  0  0  0  0  0  0  0  0  0  0
    7.8543    1.4893    5.8008 H   0  0  0  0  0  0  0  0  0  0  0  0
    7.2494    4.6112    5.8102 H   0  0  0  0  0  0  0  0  0  0  0  0
    6.9700    3.6214    4.3831 H   0  0  0  0  0  0  0  0  0  0  0  0
    8.0282    5.0105    4.2605 H   0  0  0  0  0  0  0  0  0  0  0  0
    9.5398    4.6227    6.9655 H   0  0  0  0  0  0  0  0  0  0  0  0
   10.2848    5.0689    5.4208 H   0  0  0  0  0  0  0  0  0  0  0  0
   10.8709    3.6632    6.2971 H   0  0  0  0  0  0  0  0  0  0  0  0
   10.6338    1.5469    2.6106 H   0  0  0  0  0  0  0  0  0  0  0  0
    9.3230   -0.5264    2.1558 H   0  0  0  0  0  0  0  0  0  0  0  0
    7.1141    0.5341    1.5213 H   0  0  0  0  0  0  0  0  0  0  0  0
    7.7167   -0.5926    0.3395 H   0  0  0  0  0  0  0  0  0  0  0  0
    7.9021    2.4508    0.1556 H   0  0  0  0  0  0  0  0  0  0  0  0
    6.8429    1.4011   -0.7684 H   0  0  0  0  0  0  0  0  0  0  0  0
    8.8577    2.0402   -2.0980 H   0  0  0  0  0  0  0  0  0  0  0  0
    8.7181    0.3055   -1.8639 H   0  0  0  0  0  0  0  0  0  0  0  0
   11.0615    0.9552   -1.5173 H   0  0  0  0  0  0  0  0  0  0  0  0
   10.0006    2.7709    0.5367 H   0  0  0  0  0  0  0  0  0  0  0  0
   10.6333    3.2622   -0.9000 H   0  0  0  0  0  0  0  0  0  0  0  0
   12.7840    2.4314   -0.3623 H   0  0  0  0  0  0  0  0  0  0  0  0
   12.1742    1.9196    1.2347 H   0  0  0  0  0  0  0  0  0  0  0  0
   11.3993    5.5812    2.2926 H   0  0  0  0  0  0  0  0  0  0  0  0
   11.3383    3.9394    2.9385 H   0  0  0  0  0  0  0  0  0  0  0  0
   10.2401    4.4558    1.6399 H   0  0  0  0  0  0  0  0  0  0  0  0
   12.5400    5.8576    0.1460 H   0  0  0  0  0  0  0  0  0  0  0  0
   13.9492    5.1627    1.9859 H   0  0  0  0  0  0  0  0  0  0  0  0
   14.4799    3.8797    0.9073 H   0  0  0  0  0  0  0  0  0  0  0  0
   13.6308    3.7365    3.5541 H   0  0  0  0  0  0  0  0  0  0  0  0
   11.3706    0.0435    0.8218 H   0  0  0  0  0  0  0  0  0  0  0  0
   10.2037   -0.8742   -0.0900 H   0  0  0  0  0  0  0  0  0  0  0  0
  1  2  1  0  0  0  0
  1 22  1  0  0  0  0
  1 23  1  0  0  0  0
  1 24  1  0  0  0  0
  2  3  1  0  0  0  0
  2  4  1  0  0  0  0
  2  5  1  0  0  0  0
  3 25  1  0  0  0  0
  3 26  1  0  0  0  0
  3 27  1  0  0  0  0
  4 28  1  0  0  0  0
  4 29  1  0  0  0  0
  4 30  1  0  0  0  0
  5  6  1  0  0  0  0
  6  7  2  0  0  0  0
  6  8  1  0  0  0  0
  8 31  1  0  0  0  0
  9 10  1  0  0  0  0
  9 21  1  0  0  0  0
  9  8  1  0  0  0  0
  9 32  1  1  0  0  0
 10 11  1  0  0  0  0
 10 33  1  0  0  0  0
 10 34  1  0  0  0  0
 11 12  1  0  0  0  0
 11 35  1  0  0  0  0
 11 36  1  0  0  0  0
 12 13  1  0  0  0  0
 12 37  1  0  0  0  0
 12 38  1  0  0  0  0
 13 14  1  0  0  0  0
 13 21  1  0  0  0  0
 13 39  1  6  0  0  0
 14 15  1  0  0  0  0
 14 40  1  0  0  0  0
 14 41  1  0  0  0  0
 15 42  1  0  0  0  0
 15 43  1  0  0  0  0
 16 18  1  6  0  0  0
 16 19  1  0  0  0  0
 16 17  1  0  0  0  0
 16 15  1  0  0  0  0
 17 44  1  0  0  0  0
 17 45  1  0  0  0  0
 17 46  1  0  0  0  0
 18 47  1  0  0  0  0
 19 20  1  0  0  0  0
 19 48  1  0  0  0  0
 19 49  1  0  0  0  0
 20 50  1  0  0  0  0
 21 51  1  0  0  0  0
 21 52  1  0  0  0  0
M  CHG  1  14   1
M  END
$$$$
