MODEL 1
REMARK VINA RESULT:    -9.749      0.000      0.000
REMARK INTER + INTRA:         -15.506
REMARK INTER:                 -14.878
REMARK INTRA:                  -0.628
REMARK UNBOUND:                -0.628
REMARK  Name = 
REMARK  10 active torsions:
REMARK  status: ('A' for Active; 'I' for Inactive)
REMARK    1  A    between atoms: O_1  and  C_2
REMARK    2  A    between atoms: C_2  and  C_3
REMARK    3  A    between atoms: C_3  and  C_4
REMARK    4  A    between atoms: C_4  and  C_5
REMARK    5  A    between atoms: C_9  and  C_10
REMARK    6  A    between atoms: C_10  and  C_11
REMARK    7  A    between atoms: C_16  and  C_17
REMARK    8  A    between atoms: C_17  and  C_18
REMARK    9  A    between atoms: C_18  and  C_19
REMARK   10  A    between atoms: C_19  and  O_20
REMARK                            x       y       z     vdW  Elec       q    Type
REMARK                         _______ _______ _______ _____ _____    ______ ____
ROOT
ATOM      1  C   UNL     1      -8.832  -5.783  18.020  0.00  0.00    +0.000 C 
ATOM      2  H   UNL     1      -8.273  -5.611  17.090  0.00  0.00    +0.000 HD
ATOM      3  H   UNL     1      -9.829  -5.366  17.832  0.00  0.00    +0.000 HD
ENDROOT
BRANCH   1   4
ATOM      4  C   UNL     1      -8.931  -7.273  18.290  0.00  0.00    +0.000 A 
ATOM      5  C   UNL     1      -8.917  -7.742  19.629  0.00  0.00    +0.000 A 
ATOM      6  C   UNL     1      -8.860  -9.107  19.941  0.00  0.00    +0.000 A 
ATOM      7  C   UNL     1      -8.812  -9.965  18.855  0.00  0.00    +0.000 A 
ATOM      8  N   UNL     1      -8.695 -11.337  18.782  0.00  0.00    +0.000 N 
ATOM      9  C   UNL     1      -8.705 -11.749  17.510  0.00  0.00    +0.000 A 
ATOM     10  N   UNL     1      -8.816 -10.653  16.750  0.00  0.00    +0.000 N 
ATOM     11  C   UNL     1      -8.866  -9.518  17.535  0.00  0.00    +0.000 A 
ATOM     12  C   UNL     1      -8.934  -8.174  17.203  0.00  0.00    +0.000 A 
ATOM     13  H   UNL     1      -8.930  -7.020  20.448  0.00  0.00    +0.000 HD
ATOM     14  H   UNL     1      -8.829  -9.467  20.963  0.00  0.00    +0.000 HD
ATOM     15  H   UNL     1      -8.597 -11.952  19.586  0.00  0.00    +0.000 HD
ATOM     16  H   UNL     1      -8.838 -10.656  15.734  0.00  0.00    +0.000 HD
ATOM     17  H   UNL     1      -8.951  -7.848  16.169  0.00  0.00    +0.000 HD
BRANCH   9  18
ATOM     18  C   UNL     1      -8.626 -13.162  17.040  0.00  0.00    +0.000 C 
ATOM     19  H   UNL     1      -9.575 -13.620  17.337  0.00  0.00    +0.000 HD
ATOM     20  H   UNL     1      -7.820 -13.617  17.624  0.00  0.00    +0.000 HD
BRANCH  18  21
ATOM     21  C   UNL     1      -8.388 -13.296  15.539  0.00  0.00    +0.000 C 
ATOM     22  H   UNL     1      -7.321 -13.138  15.341  0.00  0.00    +0.000 HD
ATOM     23  H   UNL     1      -8.935 -12.515  15.000  0.00  0.00    +0.000 HD
BRANCH  21  24
ATOM     24  C   UNL     1      -8.803 -14.665  15.032  0.00  0.00    +0.000 C 
ATOM     25  H   UNL     1      -8.059 -15.075  14.343  0.00  0.00    +0.000 HD
ATOM     26  H   UNL     1      -9.763 -14.611  14.509  0.00  0.00    +0.000 HD
BRANCH  24  27
ATOM     27  O   UNL     1      -8.945 -15.535  16.143  0.00  0.00    +0.000 OA
ATOM     28  H   UNL     1      -9.787 -16.015  16.043  0.00  0.00    +0.000 HD
ENDBRANCH  24  27
ENDBRANCH  21  24
ENDBRANCH  18  21
ENDBRANCH   9  18
ENDBRANCH   1   4
BRANCH   1  33
ATOM     29  C   UNL     1      -7.730  -1.982  22.456  0.00  0.00    +0.000 A 
ATOM     30  N   UNL     1      -8.696  -2.258  21.603  0.00  0.00    +0.000 NA
ATOM     31  C   UNL     1      -8.235  -3.309  20.855  0.00  0.00    +0.000 A 
ATOM     32  C   UNL     1      -8.861  -4.001  19.810  0.00  0.00    +0.000 A 
ATOM     33  C   UNL     1      -8.170  -5.041  19.161  0.00  0.00    +0.000 A 
ATOM     34  C   UNL     1      -6.858  -5.354  19.557  0.00  0.00    +0.000 A 
ATOM     35  C   UNL     1      -6.228  -4.692  20.622  0.00  0.00    +0.000 A 
ATOM     36  C   UNL     1      -6.955  -3.678  21.246  0.00  0.00    +0.000 A 
ATOM     37  N   UNL     1      -6.675  -2.848  22.301  0.00  0.00    +0.000 N 
ATOM     38  H   UNL     1      -9.869  -3.717  19.528  0.00  0.00    +0.000 HD
ATOM     39  H   UNL     1      -6.306  -6.139  19.043  0.00  0.00    +0.000 HD
ATOM     40  H   UNL     1      -5.224  -4.956  20.937  0.00  0.00    +0.000 HD
ATOM     41  H   UNL     1      -5.839  -2.862  22.869  0.00  0.00    +0.000 HD
BRANCH  29  42
ATOM     42  C   UNL     1      -7.732  -0.912  23.493  0.00  0.00    +0.000 C 
ATOM     43  H   UNL     1      -6.790  -0.916  24.054  0.00  0.00    +0.000 HD
ATOM     44  H   UNL     1      -7.789   0.058  22.988  0.00  0.00    +0.000 HD
BRANCH  42  45
ATOM     45  C   UNL     1      -8.917  -1.046  24.453  0.00  0.00    +0.000 C 
ATOM     46  H   UNL     1      -8.784  -0.308  25.253  0.00  0.00    +0.000 HD
ATOM     47  H   UNL     1      -9.855  -0.801  23.937  0.00  0.00    +0.000 HD
BRANCH  45  48
ATOM     48  C   UNL     1      -9.028  -2.433  25.072  0.00  0.00    +0.000 C 
ATOM     49  H   UNL     1      -8.073  -2.962  24.976  0.00  0.00    +0.000 HD
ATOM     50  H   UNL     1      -9.285  -2.382  26.136  0.00  0.00    +0.000 HD
BRANCH  48  51
ATOM     51  O   UNL     1     -10.033  -3.174  24.398  0.00  0.00    +0.000 OA
ATOM     52  H   UNL     1      -9.607  -3.584  23.623  0.00  0.00    +0.000 HD
ENDBRANCH  48  51
ENDBRANCH  45  48
ENDBRANCH  42  45
ENDBRANCH  29  42
ENDBRANCH   1  33
TORSDOF 10
ENDMDL
MODEL 2
REMARK VINA RESULT:    -9.638      0.276     10.059
REMARK INTER + INTRA:         -15.338
REMARK INTER:                 -14.774
REMARK INTRA:                  -0.564
REMARK UNBOUND:                -0.628
REMARK  Name = 
REMARK  10 active torsions:
REMARK  status: ('A' for Active; 'I' for Inactive)
REMARK    1  A    between atoms: O_1  and  C_2
REMARK    2  A    between atoms: C_2  and  C_3
REMARK    3  A    between atoms: C_3  and  C_4
REMARK    4  A    between atoms: C_4  and  C_5
REMARK    5  A    between atoms: C_9  and  C_10
REMARK    6  A    between atoms: C_10  and  C_11
REMARK    7  A    between atoms: C_16  and  C_17
REMARK    8  A    between atoms: C_17  and  C_18
REMARK    9  A    between atoms: C_18  and  C_19
REMARK   10  A    between atoms: C_19  and  O_20
REMARK                            x       y       z     vdW  Elec       q    Type
REMARK                         _______ _______ _______ _____ _____    ______ ____
ROOT
ATOM      1  C   UNL     1      -9.059  -5.707  18.115  0.00  0.00    +0.000 C 
ATOM      2  H   UNL     1     -10.114  -5.415  18.017  0.00  0.00    +0.000 HD
ATOM      3  H   UNL     1      -8.616  -5.504  17.132  0.00  0.00    +0.000 HD
ENDROOT
BRANCH   1   4
ATOM      4  C   UNL     1      -8.388  -4.856  19.177  0.00  0.00    +0.000 A 
ATOM      5  C   UNL     1      -7.091  -5.205  19.634  0.00  0.00    +0.000 A 
ATOM      6  C   UNL     1      -6.477  -4.549  20.710  0.00  0.00    +0.000 A 
ATOM      7  C   UNL     1      -7.224  -3.544  21.300  0.00  0.00    +0.000 A 
ATOM      8  N   UNL     1      -6.972  -2.742  22.393  0.00  0.00    +0.000 N 
ATOM      9  C   UNL     1      -7.978  -1.886  22.599  0.00  0.00    +0.000 A 
ATOM     10  N   UNL     1      -8.894  -2.133  21.654  0.00  0.00    +0.000 N 
ATOM     11  C   UNL     1      -8.484  -3.165  20.835  0.00  0.00    +0.000 A 
ATOM     12  C   UNL     1      -9.105  -3.792  19.766  0.00  0.00    +0.000 A 
ATOM     13  H   UNL     1      -6.556  -6.024  19.149  0.00  0.00    +0.000 HD
ATOM     14  H   UNL     1      -5.495  -4.828  21.074  0.00  0.00    +0.000 HD
ATOM     15  H   UNL     1      -6.140  -2.804  22.975  0.00  0.00    +0.000 HD
ATOM     16  H   UNL     1      -9.778  -1.640  21.567  0.00  0.00    +0.000 HD
ATOM     17  H   UNL     1     -10.095  -3.496  19.436  0.00  0.00    +0.000 HD
BRANCH   9  18
ATOM     18  C   UNL     1      -8.049  -0.848  23.668  0.00  0.00    +0.000 C 
ATOM     19  H   UNL     1      -7.925   0.108  23.150  0.00  0.00    +0.000 HD
ATOM     20  H   UNL     1      -7.172  -1.022  24.298  0.00  0.00    +0.000 HD
BRANCH  18  21
ATOM     21  C   UNL     1      -9.345  -0.884  24.471  0.00  0.00    +0.000 C 
ATOM     22  H   UNL     1     -10.184  -0.712  23.787  0.00  0.00    +0.000 HD
ATOM     23  H   UNL     1      -9.355  -0.070  25.205  0.00  0.00    +0.000 HD
BRANCH  21  24
ATOM     24  C   UNL     1      -9.525  -2.218  25.173  0.00  0.00    +0.000 C 
ATOM     25  H   UNL     1      -9.889  -2.082  26.196  0.00  0.00    +0.000 HD
ATOM     26  H   UNL     1      -8.579  -2.766  25.215  0.00  0.00    +0.000 HD
BRANCH  24  27
ATOM     27  O   UNL     1     -10.461  -2.992  24.440  0.00  0.00    +0.000 OA
ATOM     28  H   UNL     1     -10.622  -2.544  23.590  0.00  0.00    +0.000 HD
ENDBRANCH  24  27
ENDBRANCH  21  24
ENDBRANCH  18  21
ENDBRANCH   9  18
ENDBRANCH   1   4
BRANCH   1  33
ATOM     29  C   UNL     1      -8.721 -11.620  17.602  0.00  0.00    +0.000 A 
ATOM     30  N   UNL     1      -8.793 -10.560  16.824  0.00  0.00    +0.000 NA
ATOM     31  C   UNL     1      -8.832  -9.484  17.672  0.00  0.00    +0.000 A 
ATOM     32  C   UNL     1      -8.904  -8.117  17.374  0.00  0.00    +0.000 A 
ATOM     33  C   UNL     1      -8.965  -7.185  18.427  0.00  0.00    +0.000 A 
ATOM     34  C   UNL     1      -8.972  -7.641  19.757  0.00  0.00    +0.000 A 
ATOM     35  C   UNL     1      -8.870  -9.005  20.072  0.00  0.00    +0.000 A 
ATOM     36  C   UNL     1      -8.797  -9.892  18.999  0.00  0.00    +0.000 A 
ATOM     37  N   UNL     1      -8.678 -11.256  18.927  0.00  0.00    +0.000 N 
ATOM     38  H   UNL     1      -8.909  -7.810  16.334  0.00  0.00    +0.000 HD
ATOM     39  H   UNL     1      -9.046  -6.929  20.577  0.00  0.00    +0.000 HD
ATOM     40  H   UNL     1      -8.853  -9.347  21.102  0.00  0.00    +0.000 HD
ATOM     41  H   UNL     1      -8.578 -11.891  19.706  0.00  0.00    +0.000 HD
BRANCH  29  42
ATOM     42  C   UNL     1      -8.660 -13.044  17.169  0.00  0.00    +0.000 C 
ATOM     43  H   UNL     1      -7.916 -13.595  17.756  0.00  0.00    +0.000 HD
ATOM     44  H   UNL     1      -9.629 -13.511  17.379  0.00  0.00    +0.000 HD
BRANCH  42  45
ATOM     45  C   UNL     1      -8.354 -13.177  15.675  0.00  0.00    +0.000 C 
ATOM     46  H   UNL     1      -8.897 -12.383  15.151  0.00  0.00    +0.000 HD
ATOM     47  H   UNL     1      -7.283 -13.017  15.491  0.00  0.00    +0.000 HD
BRANCH  45  48
ATOM     48  C   UNL     1      -8.769 -14.525  15.101  0.00  0.00    +0.000 C 
ATOM     49  H   UNL     1      -9.714 -14.424  14.557  0.00  0.00    +0.000 HD
ATOM     50  H   UNL     1      -8.016 -14.920  14.409  0.00  0.00    +0.000 HD
BRANCH  48  51
ATOM     51  O   UNL     1      -8.945 -15.458  16.156  0.00  0.00    +0.000 OA
ATOM     52  H   UNL     1      -8.528 -16.290  15.867  0.00  0.00    +0.000 HD
ENDBRANCH  48  51
ENDBRANCH  45  48
ENDBRANCH  42  45
ENDBRANCH  29  42
ENDBRANCH   1  33
TORSDOF 10
ENDMDL
MODEL 3
REMARK VINA RESULT:    -9.307      1.383      9.853
REMARK INTER + INTRA:         -14.832
REMARK INTER:                 -14.072
REMARK INTRA:                  -0.760
REMARK UNBOUND:                -0.628
REMARK  Name = 
REMARK  10 active torsions:
REMARK  status: ('A' for Active; 'I' for Inactive)
REMARK    1  A    between atoms: O_1  and  C_2
REMARK    2  A    between atoms: C_2  and  C_3
REMARK    3  A    between atoms: C_3  and  C_4
REMARK    4  A    between atoms: C_4  and  C_5
REMARK    5  A    between atoms: C_9  and  C_10
REMARK    6  A    between atoms: C_10  and  C_11
REMARK    7  A    between atoms: C_16  and  C_17
REMARK    8  A    between atoms: C_17  and  C_18
REMARK    9  A    between atoms: C_18  and  C_19
REMARK   10  A    between atoms: C_19  and  O_20
REMARK                            x       y       z     vdW  Elec       q    Type
REMARK                         _______ _______ _______ _____ _____    ______ ____
ROOT
ATOM      1  C   UNL     1      -9.692  -6.596  16.748  0.00  0.00    +0.000 C 
ATOM      2  H   UNL     1     -10.714  -6.465  17.127  0.00  0.00    +0.000 HD
ATOM      3  H   UNL     1      -9.666  -6.039  15.803  0.00  0.00    +0.000 HD
ENDROOT
BRANCH   1   4
ATOM      4  C   UNL     1      -8.700  -6.003  17.731  0.00  0.00    +0.000 A 
ATOM      5  C   UNL     1      -7.329  -6.357  17.638  0.00  0.00    +0.000 A 
ATOM      6  C   UNL     1      -6.388  -5.960  18.599  0.00  0.00    +0.000 A 
ATOM      7  C   UNL     1      -6.890  -5.206  19.647  0.00  0.00    +0.000 A 
ATOM      8  N   UNL     1      -6.284  -4.701  20.778  0.00  0.00    +0.000 N 
ATOM      9  C   UNL     1      -7.157  -4.010  21.518  0.00  0.00    +0.000 A 
ATOM     10  N   UNL     1      -8.334  -4.071  20.884  0.00  0.00    +0.000 N 
ATOM     11  C   UNL     1      -8.227  -4.818  19.728  0.00  0.00    +0.000 A 
ATOM     12  C   UNL     1      -9.172  -5.189  18.784  0.00  0.00    +0.000 A 
ATOM     13  H   UNL     1      -6.992  -6.977  16.804  0.00  0.00    +0.000 HD
ATOM     14  H   UNL     1      -5.345  -6.247  18.541  0.00  0.00    +0.000 HD
ATOM     15  H   UNL     1      -5.309  -4.847  21.025  0.00  0.00    +0.000 HD
ATOM     16  H   UNL     1      -9.193  -3.643  21.220  0.00  0.00    +0.000 HD
ATOM     17  H   UNL     1     -10.211  -4.896  18.879  0.00  0.00    +0.000 HD
BRANCH   9  18
ATOM     18  C   UNL     1      -6.862  -3.297  22.794  0.00  0.00    +0.000 C 
ATOM     19  H   UNL     1      -5.819  -2.973  22.711  0.00  0.00    +0.000 HD
ATOM     20  H   UNL     1      -6.929  -4.061  23.575  0.00  0.00    +0.000 HD
BRANCH  18  21
ATOM     21  C   UNL     1      -7.792  -2.119  23.067  0.00  0.00    +0.000 C 
ATOM     22  H   UNL     1      -8.323  -1.874  22.140  0.00  0.00    +0.000 HD
ATOM     23  H   UNL     1      -7.208  -1.236  23.348  0.00  0.00    +0.000 HD
BRANCH  21  24
ATOM     24  C   UNL     1      -8.795  -2.447  24.158  0.00  0.00    +0.000 C 
ATOM     25  H   UNL     1      -9.178  -1.538  24.631  0.00  0.00    +0.000 HD
ATOM     26  H   UNL     1      -8.338  -3.071  24.932  0.00  0.00    +0.000 HD
BRANCH  24  27
ATOM     27  O   UNL     1      -9.873  -3.166  23.581  0.00  0.00    +0.000 OA
ATOM     28  H   UNL     1      -9.639  -4.111  23.582  0.00  0.00    +0.000 HD
ENDBRANCH  24  27
ENDBRANCH  21  24
ENDBRANCH  18  21
ENDBRANCH   9  18
ENDBRANCH   1   4
BRANCH   1  33
ATOM     29  C   UNL     1      -8.756 -12.423  17.463  0.00  0.00    +0.000 A 
ATOM     30  N   UNL     1      -8.993 -11.359  18.203  0.00  0.00    +0.000 NA
ATOM     31  C   UNL     1      -9.116 -10.318  17.319  0.00  0.00    +0.000 A 
ATOM     32  C   UNL     1      -9.377  -8.965  17.567  0.00  0.00    +0.000 A 
ATOM     33  C   UNL     1      -9.427  -8.064  16.488  0.00  0.00    +0.000 A 
ATOM     34  C   UNL     1      -9.197  -8.532  15.183  0.00  0.00    +0.000 A 
ATOM     35  C   UNL     1      -8.965  -9.890  14.914  0.00  0.00    +0.000 A 
ATOM     36  C   UNL     1      -8.937 -10.749  16.011  0.00  0.00    +0.000 A 
ATOM     37  N   UNL     1      -8.757 -12.104  16.127  0.00  0.00    +0.000 N 
ATOM     38  H   UNL     1      -9.535  -8.644  18.591  0.00  0.00    +0.000 HD
ATOM     39  H   UNL     1      -9.208  -7.838  14.344  0.00  0.00    +0.000 HD
ATOM     40  H   UNL     1      -8.811 -10.247  13.900  0.00  0.00    +0.000 HD
ATOM     41  H   UNL     1      -8.642 -12.761  15.367  0.00  0.00    +0.000 HD
BRANCH  29  42
ATOM     42  C   UNL     1      -8.540 -13.816  17.945  0.00  0.00    +0.000 C 
ATOM     43  H   UNL     1      -7.469 -14.052  17.978  0.00  0.00    +0.000 HD
ATOM     44  H   UNL     1      -8.905 -13.886  18.976  0.00  0.00    +0.000 HD
BRANCH  42  45
ATOM     45  C   UNL     1      -9.278 -14.843  17.083  0.00  0.00    +0.000 C 
ATOM     46  H   UNL     1      -9.367 -15.767  17.667  0.00  0.00    +0.000 HD
ATOM     47  H   UNL     1     -10.297 -14.495  16.866  0.00  0.00    +0.000 HD
BRANCH  45  48
ATOM     48  C   UNL     1      -8.559 -15.150  15.776  0.00  0.00    +0.000 C 
ATOM     49  H   UNL     1      -7.673 -14.514  15.680  0.00  0.00    +0.000 HD
ATOM     50  H   UNL     1      -8.237 -16.196  15.727  0.00  0.00    +0.000 HD
BRANCH  48  51
ATOM     51  O   UNL     1      -9.429 -14.893  14.685  0.00  0.00    +0.000 OA
ATOM     52  H   UNL     1     -10.328 -15.127  14.981  0.00  0.00    +0.000 HD
ENDBRANCH  48  51
ENDBRANCH  45  48
ENDBRANCH  42  45
ENDBRANCH  29  42
ENDBRANCH   1  33
TORSDOF 10
ENDMDL
MODEL 4
REMARK VINA RESULT:    -8.969      1.415      2.115
REMARK INTER + INTRA:         -14.317
REMARK INTER:                 -13.865
REMARK INTRA:                  -0.452
REMARK UNBOUND:                -0.628
REMARK  Name = 
REMARK  10 active torsions:
REMARK  status: ('A' for Active; 'I' for Inactive)
REMARK    1  A    between atoms: O_1  and  C_2
REMARK    2  A    between atoms: C_2  and  C_3
REMARK    3  A    between atoms: C_3  and  C_4
REMARK    4  A    between atoms: C_4  and  C_5
REMARK    5  A    between atoms: C_9  and  C_10
REMARK    6  A    between atoms: C_10  and  C_11
REMARK    7  A    between atoms: C_16  and  C_17
REMARK    8  A    between atoms: C_17  and  C_18
REMARK    9  A    between atoms: C_18  and  C_19
REMARK   10  A    between atoms: C_19  and  O_20
REMARK                            x       y       z     vdW  Elec       q    Type
REMARK                         _______ _______ _______ _____ _____    ______ ____
ROOT
ATOM      1  C   UNL     1      -9.555  -6.540  17.125  0.00  0.00    +0.000 C 
ATOM      2  H   UNL     1      -9.480  -5.968  16.191  0.00  0.00    +0.000 HD
ATOM      3  H   UNL     1     -10.600  -6.430  17.443  0.00  0.00    +0.000 HD
ENDROOT
BRANCH   1   4
ATOM      4  C   UNL     1      -9.240  -8.000  16.859  0.00  0.00    +0.000 A 
ATOM      5  C   UNL     1      -9.139  -8.460  15.521  0.00  0.00    +0.000 A 
ATOM      6  C   UNL     1      -8.994  -9.818  15.207  0.00  0.00    +0.000 A 
ATOM      7  C   UNL     1      -8.963 -10.680  16.290  0.00  0.00    +0.000 A 
ATOM      8  N   UNL     1      -8.892 -12.055  16.360  0.00  0.00    +0.000 N 
ATOM      9  C   UNL     1      -8.873 -12.469  17.631  0.00  0.00    +0.000 A 
ATOM     10  N   UNL     1      -8.943 -11.371  18.395  0.00  0.00    +0.000 N 
ATOM     11  C   UNL     1      -9.022 -10.237  17.612  0.00  0.00    +0.000 A 
ATOM     12  C   UNL     1      -9.153  -8.898  17.946  0.00  0.00    +0.000 A 
ATOM     13  H   UNL     1      -9.196  -7.739  14.703  0.00  0.00    +0.000 HD
ATOM     14  H   UNL     1      -8.938 -10.173  14.185  0.00  0.00    +0.000 HD
ATOM     15  H   UNL     1      -8.874 -12.674  15.553  0.00  0.00    +0.000 HD
ATOM     16  H   UNL     1      -8.958 -11.376  19.410  0.00  0.00    +0.000 HD
ATOM     17  H   UNL     1      -9.220  -8.578  18.980  0.00  0.00    +0.000 HD
BRANCH   9  18
ATOM     18  C   UNL     1      -8.773 -13.881  18.098  0.00  0.00    +0.000 C 
ATOM     19  H   UNL     1      -9.208 -13.886  19.103  0.00  0.00    +0.000 HD
ATOM     20  H   UNL     1      -7.700 -14.083  18.182  0.00  0.00    +0.000 HD
BRANCH  18  21
ATOM     21  C   UNL     1      -9.471 -14.881  17.182  0.00  0.00    +0.000 C 
ATOM     22  H   UNL     1     -10.437 -14.459  16.880  0.00  0.00    +0.000 HD
ATOM     23  H   UNL     1      -9.680 -15.808  17.727  0.00  0.00    +0.000 HD
BRANCH  21  24
ATOM     24  C   UNL     1      -8.637 -15.180  15.950  0.00  0.00    +0.000 C 
ATOM     25  H   UNL     1      -8.375 -16.240  15.896  0.00  0.00    +0.000 HD
ATOM     26  H   UNL     1      -7.711 -14.597  15.956  0.00  0.00    +0.000 HD
BRANCH  24  27
ATOM     27  O   UNL     1      -9.385 -14.821  14.799  0.00  0.00    +0.000 OA
ATOM     28  H   UNL     1     -10.330 -14.914  15.014  0.00  0.00    +0.000 HD
ENDBRANCH  24  27
ENDBRANCH  21  24
ENDBRANCH  18  21
ENDBRANCH   9  18
ENDBRANCH   1   4
BRANCH   1  33
ATOM     29  C   UNL     1      -7.335  -3.178  21.497  0.00  0.00    +0.000 A 
ATOM     30  N   UNL     1      -8.457  -3.310  20.820  0.00  0.00    +0.000 NA
ATOM     31  C   UNL     1      -8.237  -4.338  19.941  0.00  0.00    +0.000 A 
ATOM     32  C   UNL     1      -9.100  -4.898  18.990  0.00  0.00    +0.000 A 
ATOM     33  C   UNL     1      -8.635  -5.940  18.167  0.00  0.00    +0.000 A 
ATOM     34  C   UNL     1      -7.310  -6.389  18.300  0.00  0.00    +0.000 A 
ATOM     35  C   UNL     1      -6.442  -5.861  19.268  0.00  0.00    +0.000 A 
ATOM     36  C   UNL     1      -6.949  -4.839  20.071  0.00  0.00    +0.000 A 
ATOM     37  N   UNL     1      -6.410  -4.115  21.103  0.00  0.00    +0.000 N 
ATOM     38  H   UNL     1     -10.110  -4.512  18.913  0.00  0.00    +0.000 HD
ATOM     39  H   UNL     1      -6.934  -7.177  17.650  0.00  0.00    +0.000 HD
ATOM     40  H   UNL     1      -5.428  -6.229  19.379  0.00  0.00    +0.000 HD
ATOM     41  H   UNL     1      -5.492  -4.239  21.508  0.00  0.00    +0.000 HD
BRANCH  29  42
ATOM     42  C   UNL     1      -7.053  -2.191  22.577  0.00  0.00    +0.000 C 
ATOM     43  H   UNL     1      -6.042  -2.332  22.975  0.00  0.00    +0.000 HD
ATOM     44  H   UNL     1      -7.078  -1.186  22.141  0.00  0.00    +0.000 HD
BRANCH  42  45
ATOM     45  C   UNL     1      -8.080  -2.270  23.709  0.00  0.00    +0.000 C 
ATOM     46  H   UNL     1      -8.616  -3.220  23.609  0.00  0.00    +0.000 HD
ATOM     47  H   UNL     1      -7.572  -2.283  24.683  0.00  0.00    +0.000 HD
BRANCH  45  48
ATOM     48  C   UNL     1      -9.086  -1.127  23.680  0.00  0.00    +0.000 C 
ATOM     49  H   UNL     1     -10.025  -1.467  23.232  0.00  0.00    +0.000 HD
ATOM     50  H   UNL     1      -9.303  -0.753  24.687  0.00  0.00    +0.000 HD
BRANCH  48  51
ATOM     51  O   UNL     1      -8.568  -0.057  22.904  0.00  0.00    +0.000 OA
ATOM     52  H   UNL     1      -8.925   0.765  23.286  0.00  0.00    +0.000 HD
ENDBRANCH  48  51
ENDBRANCH  45  48
ENDBRANCH  42  45
ENDBRANCH  29  42
ENDBRANCH   1  33
TORSDOF 10
ENDMDL
MODEL 5
REMARK VINA RESULT:    -8.901      4.925      9.343
REMARK INTER + INTRA:         -14.212
REMARK INTER:                 -14.133
REMARK INTRA:                  -0.079
REMARK UNBOUND:                -0.628
REMARK  Name = 
REMARK  10 active torsions:
REMARK  status: ('A' for Active; 'I' for Inactive)
REMARK    1  A    between atoms: O_1  and  C_2
REMARK    2  A    between atoms: C_2  and  C_3
REMARK    3  A    between atoms: C_3  and  C_4
REMARK    4  A    between atoms: C_4  and  C_5
REMARK    5  A    between atoms: C_9  and  C_10
REMARK    6  A    between atoms: C_10  and  C_11
REMARK    7  A    between atoms: C_16  and  C_17
REMARK    8  A    between atoms: C_17  and  C_18
REMARK    9  A    between atoms: C_18  and  C_19
REMARK   10  A    between atoms: C_19  and  O_20
REMARK                            x       y       z     vdW  Elec       q    Type
REMARK                         _______ _______ _______ _____ _____    ______ ____
ROOT
ATOM      1  C   UNL     1     -10.162  -6.130  18.532  0.00  0.00    +0.000 C 
ATOM      2  H   UNL     1      -9.530  -5.413  19.073  0.00  0.00    +0.000 HD
ATOM      3  H   UNL     1     -11.152  -6.044  18.998  0.00  0.00    +0.000 HD
ENDROOT
BRANCH   1   4
ATOM      4  C   UNL     1     -10.239  -5.741  17.067  0.00  0.00    +0.000 A 
ATOM      5  C   UNL     1      -9.263  -6.233  16.162  0.00  0.00    +0.000 A 
ATOM      6  C   UNL     1      -9.193  -5.799  14.831  0.00  0.00    +0.000 A 
ATOM      7  C   UNL     1     -10.136  -4.854  14.462  0.00  0.00    +0.000 A 
ATOM      8  N   UNL     1     -10.329  -4.173  13.279  0.00  0.00    +0.000 N 
ATOM      9  C   UNL     1     -11.384  -3.356  13.366  0.00  0.00    +0.000 A 
ATOM     10  N   UNL     1     -11.875  -3.490  14.604  0.00  0.00    +0.000 N 
ATOM     11  C   UNL     1     -11.125  -4.393  15.331  0.00  0.00    +0.000 A 
ATOM     12  C   UNL     1     -11.220  -4.817  16.647  0.00  0.00    +0.000 A 
ATOM     13  H   UNL     1      -8.526  -6.958  16.513  0.00  0.00    +0.000 HD
ATOM     14  H   UNL     1      -8.436  -6.158  14.144  0.00  0.00    +0.000 HD
ATOM     15  H   UNL     1      -9.739  -4.265  12.456  0.00  0.00    +0.000 HD
ATOM     16  H   UNL     1     -12.677  -2.981  14.964  0.00  0.00    +0.000 HD
ATOM     17  H   UNL     1     -11.983  -4.427  17.312  0.00  0.00    +0.000 HD
BRANCH   9  18
ATOM     18  C   UNL     1     -11.915  -2.481  12.281  0.00  0.00    +0.000 C 
ATOM     19  H   UNL     1     -11.039  -1.976  11.862  0.00  0.00    +0.000 HD
ATOM     20  H   UNL     1     -12.539  -1.738  12.787  0.00  0.00    +0.000 HD
BRANCH  18  21
ATOM     21  C   UNL     1     -12.689  -3.238  11.207  0.00  0.00    +0.000 C 
ATOM     22  H   UNL     1     -13.460  -2.573  10.799  0.00  0.00    +0.000 HD
ATOM     23  H   UNL     1     -13.206  -4.096  11.651  0.00  0.00    +0.000 HD
BRANCH  21  24
ATOM     24  C   UNL     1     -11.774  -3.705  10.089  0.00  0.00    +0.000 C 
ATOM     25  H   UNL     1     -10.878  -3.082  10.025  0.00  0.00    +0.000 HD
ATOM     26  H   UNL     1     -12.289  -3.667   9.125  0.00  0.00    +0.000 HD
BRANCH  24  27
ATOM     27  O   UNL     1     -11.396  -5.048  10.345  0.00  0.00    +0.000 OA
ATOM     28  H   UNL     1     -10.423  -5.092  10.340  0.00  0.00    +0.000 HD
ENDBRANCH  24  27
ENDBRANCH  21  24
ENDBRANCH  18  21
ENDBRANCH   9  18
ENDBRANCH   1   4
BRANCH   1  33
ATOM     29  C   UNL     1      -8.691 -11.825  17.670  0.00  0.00    +0.000 A 
ATOM     30  N   UNL     1      -9.286 -10.845  17.020  0.00  0.00    +0.000 NA
ATOM     31  C   UNL     1      -9.255  -9.770  17.869  0.00  0.00    +0.000 A 
ATOM     32  C   UNL     1      -9.742  -8.470  17.680  0.00  0.00    +0.000 A 
ATOM     33  C   UNL     1      -9.623  -7.531  18.721  0.00  0.00    +0.000 A 
ATOM     34  C   UNL     1      -9.035  -7.917  19.938  0.00  0.00    +0.000 A 
ATOM     35  C   UNL     1      -8.514  -9.205  20.133  0.00  0.00    +0.000 A 
ATOM     36  C   UNL     1      -8.641 -10.099  19.070  0.00  0.00    +0.000 A 
ATOM     37  N   UNL     1      -8.247 -11.402  18.899  0.00  0.00    +0.000 N 
ATOM     38  H   UNL     1     -10.201  -8.220  16.730  0.00  0.00    +0.000 HD
ATOM     39  H   UNL     1      -8.962  -7.205  20.758  0.00  0.00    +0.000 HD
ATOM     40  H   UNL     1      -8.040  -9.488  21.068  0.00  0.00    +0.000 HD
ATOM     41  H   UNL     1      -7.724 -11.962  19.558  0.00  0.00    +0.000 HD
BRANCH  29  42
ATOM     42  C   UNL     1      -8.469 -13.215  17.182  0.00  0.00    +0.000 C 
ATOM     43  H   UNL     1      -7.544 -13.629  17.602  0.00  0.00    +0.000 HD
ATOM     44  H   UNL     1      -9.286 -13.845  17.550  0.00  0.00    +0.000 HD
BRANCH  42  45
ATOM     45  C   UNL     1      -8.430 -13.288  15.654  0.00  0.00    +0.000 C 
ATOM     46  H   UNL     1      -9.135 -12.544  15.266  0.00  0.00    +0.000 HD
ATOM     47  H   UNL     1      -7.432 -13.014  15.285  0.00  0.00    +0.000 HD
BRANCH  45  48
ATOM     48  C   UNL     1      -8.809 -14.661  15.114  0.00  0.00    +0.000 C 
ATOM     49  H   UNL     1      -9.724 -14.587  14.517  0.00  0.00    +0.000 HD
ATOM     50  H   UNL     1      -8.020 -15.079  14.480  0.00  0.00    +0.000 HD
BRANCH  48  51
ATOM     51  O   UNL     1      -9.038 -15.550  16.196  0.00  0.00    +0.000 OA
ATOM     52  H   UNL     1      -9.248 -16.418  15.806  0.00  0.00    +0.000 HD
ENDBRANCH  48  51
ENDBRANCH  45  48
ENDBRANCH  42  45
ENDBRANCH  29  42
ENDBRANCH   1  33
TORSDOF 10
ENDMDL
MODEL 6
REMARK VINA RESULT:    -8.853      5.080      7.149
REMARK INTER + INTRA:         -14.139
REMARK INTER:                 -13.683
REMARK INTRA:                  -0.455
REMARK UNBOUND:                -0.628
REMARK  Name = 
REMARK  10 active torsions:
REMARK  status: ('A' for Active; 'I' for Inactive)
REMARK    1  A    between atoms: O_1  and  C_2
REMARK    2  A    between atoms: C_2  and  C_3
REMARK    3  A    between atoms: C_3  and  C_4
REMARK    4  A    between atoms: C_4  and  C_5
REMARK    5  A    between atoms: C_9  and  C_10
REMARK    6  A    between atoms: C_10  and  C_11
REMARK    7  A    between atoms: C_16  and  C_17
REMARK    8  A    between atoms: C_17  and  C_18
REMARK    9  A    between atoms: C_18  and  C_19
REMARK   10  A    between atoms: C_19  and  O_20
REMARK                            x       y       z     vdW  Elec       q    Type
REMARK                         _______ _______ _______ _____ _____    ______ ____
ROOT
ATOM      1  C   UNL     1     -10.532  -5.823  18.066  0.00  0.00    +0.000 C 
ATOM      2  H   UNL     1     -11.570  -5.718  18.410  0.00  0.00    +0.000 HD
ATOM      3  H   UNL     1      -9.959  -5.108  18.670  0.00  0.00    +0.000 HD
ENDROOT
BRANCH   1   4
ATOM      4  C   UNL     1     -10.045  -7.236  18.328  0.00  0.00    +0.000 A 
ATOM      5  C   UNL     1      -9.280  -7.506  19.492  0.00  0.00    +0.000 A 
ATOM      6  C   UNL     1      -8.680  -8.753  19.719  0.00  0.00    +0.000 A 
ATOM      7  C   UNL     1      -8.880  -9.699  18.728  0.00  0.00    +0.000 A 
ATOM      8  N   UNL     1      -8.405 -10.986  18.587  0.00  0.00    +0.000 N 
ATOM      9  C   UNL     1      -8.872 -11.547  17.467  0.00  0.00    +0.000 A 
ATOM     10  N   UNL     1      -9.641 -10.630  16.868  0.00  0.00    +0.000 N 
ATOM     11  C   UNL     1      -9.663  -9.459  17.599  0.00  0.00    +0.000 A 
ATOM     12  C   UNL     1     -10.275  -8.238  17.360  0.00  0.00    +0.000 A 
ATOM     13  H   UNL     1      -9.132  -6.714  20.229  0.00  0.00    +0.000 HD
ATOM     14  H   UNL     1      -8.078  -8.954  20.597  0.00  0.00    +0.000 HD
ATOM     15  H   UNL     1      -7.770 -11.442  19.238  0.00  0.00    +0.000 HD
ATOM     16  H   UNL     1     -10.124 -10.771  15.985  0.00  0.00    +0.000 HD
ATOM     17  H   UNL     1     -10.860  -8.067  16.464  0.00  0.00    +0.000 HD
BRANCH   9  18
ATOM     18  C   UNL     1      -8.598 -12.935  16.995  0.00  0.00    +0.000 C 
ATOM     19  H   UNL     1      -9.417 -13.543  17.393  0.00  0.00    +0.000 HD
ATOM     20  H   UNL     1      -7.669 -13.231  17.492  0.00  0.00    +0.000 HD
BRANCH  18  21
ATOM     21  C   UNL     1      -8.497 -13.057  15.478  0.00  0.00    +0.000 C 
ATOM     22  H   UNL     1      -7.470 -12.818  15.177  0.00  0.00    +0.000 HD
ATOM     23  H   UNL     1      -9.153 -12.322  14.997  0.00  0.00    +0.000 HD
BRANCH  21  24
ATOM     24  C   UNL     1      -8.853 -14.456  15.010  0.00  0.00    +0.000 C 
ATOM     25  H   UNL     1      -8.125 -14.829  14.284  0.00  0.00    +0.000 HD
ATOM     26  H   UNL     1      -9.842 -14.470  14.542  0.00  0.00    +0.000 HD
BRANCH  24  27
ATOM     27  O   UNL     1      -8.877 -15.318  16.137  0.00  0.00    +0.000 OA
ATOM     28  H   UNL     1      -8.488 -14.839  16.890  0.00  0.00    +0.000 HD
ENDBRANCH  24  27
ENDBRANCH  21  24
ENDBRANCH  18  21
ENDBRANCH   9  18
ENDBRANCH   1   4
BRANCH   1  33
ATOM     29  C   UNL     1     -11.699  -3.625  12.667  0.00  0.00    +0.000 A 
ATOM     30  N   UNL     1     -12.249  -3.659  13.864  0.00  0.00    +0.000 NA
ATOM     31  C   UNL     1     -11.372  -4.360  14.650  0.00  0.00    +0.000 A 
ATOM     32  C   UNL     1     -11.459  -4.686  16.010  0.00  0.00    +0.000 A 
ATOM     33  C   UNL     1     -10.438  -5.452  16.601  0.00  0.00    +0.000 A 
ATOM     34  C   UNL     1      -9.359  -5.893  15.816  0.00  0.00    +0.000 A 
ATOM     35  C   UNL     1      -9.241  -5.550  14.461  0.00  0.00    +0.000 A 
ATOM     36  C   UNL     1     -10.268  -4.778  13.919  0.00  0.00    +0.000 A 
ATOM     37  N   UNL     1     -10.478  -4.255  12.668  0.00  0.00    +0.000 N 
ATOM     38  H   UNL     1     -12.316  -4.336  16.575  0.00  0.00    +0.000 HD
ATOM     39  H   UNL     1      -8.578  -6.508  16.259  0.00  0.00    +0.000 HD
ATOM     40  H   UNL     1      -8.393  -5.875  13.867  0.00  0.00    +0.000 HD
ATOM     41  H   UNL     1      -9.850  -4.319  11.879  0.00  0.00    +0.000 HD
BRANCH  29  42
ATOM     42  C   UNL     1     -12.258  -2.982  11.445  0.00  0.00    +0.000 C 
ATOM     43  H   UNL     1     -13.318  -3.234  11.325  0.00  0.00    +0.000 HD
ATOM     44  H   UNL     1     -12.210  -1.895  11.574  0.00  0.00    +0.000 HD
BRANCH  42  45
ATOM     45  C   UNL     1     -11.480  -3.370  10.185  0.00  0.00    +0.000 C 
ATOM     46  H   UNL     1     -11.592  -2.557   9.459  0.00  0.00    +0.000 HD
ATOM     47  H   UNL     1     -10.408  -3.459  10.412  0.00  0.00    +0.000 HD
BRANCH  45  48
ATOM     48  C   UNL     1     -11.973  -4.667   9.558  0.00  0.00    +0.000 C 
ATOM     49  H   UNL     1     -12.993  -4.880   9.893  0.00  0.00    +0.000 HD
ATOM     50  H   UNL     1     -11.977  -4.611   8.463  0.00  0.00    +0.000 HD
BRANCH  48  51
ATOM     51  O   UNL     1     -11.128  -5.737   9.952  0.00  0.00    +0.000 OA
ATOM     52  H   UNL     1     -11.704  -6.509  10.100  0.00  0.00    +0.000 HD
ENDBRANCH  48  51
ENDBRANCH  45  48
ENDBRANCH  42  45
ENDBRANCH  29  42
ENDBRANCH   1  33
TORSDOF 10
ENDMDL
MODEL 7
REMARK VINA RESULT:    -8.819      1.072     10.106
REMARK INTER + INTRA:         -14.087
REMARK INTER:                 -13.743
REMARK INTRA:                  -0.344
REMARK UNBOUND:                -0.628
REMARK  Name = 
REMARK  10 active torsions:
REMARK  status: ('A' for Active; 'I' for Inactive)
REMARK    1  A    between atoms: O_1  and  C_2
REMARK    2  A    between atoms: C_2  and  C_3
REMARK    3  A    between atoms: C_3  and  C_4
REMARK    4  A    between atoms: C_4  and  C_5
REMARK    5  A    between atoms: C_9  and  C_10
REMARK    6  A    between atoms: C_10  and  C_11
REMARK    7  A    between atoms: C_16  and  C_17
REMARK    8  A    between atoms: C_17  and  C_18
REMARK    9  A    between atoms: C_18  and  C_19
REMARK   10  A    between atoms: C_19  and  O_20
REMARK                            x       y       z     vdW  Elec       q    Type
REMARK                         _______ _______ _______ _____ _____    ______ ____
ROOT
ATOM      1  C   UNL     1      -9.754  -5.557  17.173  0.00  0.00    +0.000 C 
ATOM      2  H   UNL     1     -10.709  -5.488  16.636  0.00  0.00    +0.000 HD
ATOM      3  H   UNL     1      -8.993  -5.268  16.438  0.00  0.00    +0.000 HD
ENDROOT
BRANCH   1   4
ATOM      4  C   UNL     1      -9.751  -4.585  18.338  0.00  0.00    +0.000 A 
ATOM      5  C   UNL     1     -10.817  -3.660  18.479  0.00  0.00    +0.000 A 
ATOM      6  C   UNL     1     -10.802  -2.644  19.445  0.00  0.00    +0.000 A 
ATOM      7  C   UNL     1      -9.674  -2.601  20.247  0.00  0.00    +0.000 A 
ATOM      8  N   UNL     1      -9.295  -1.724  21.241  0.00  0.00    +0.000 N 
ATOM      9  C   UNL     1      -8.117  -2.077  21.765  0.00  0.00    +0.000 A 
ATOM     10  N   UNL     1      -7.716  -3.174  21.110  0.00  0.00    +0.000 N 
ATOM     11  C   UNL     1      -8.637  -3.529  20.145  0.00  0.00    +0.000 A 
ATOM     12  C   UNL     1      -8.636  -4.548  19.205  0.00  0.00    +0.000 A 
ATOM     13  H   UNL     1     -11.672  -3.723  17.802  0.00  0.00    +0.000 HD
ATOM     14  H   UNL     1     -11.606  -1.924  19.540  0.00  0.00    +0.000 HD
ATOM     15  H   UNL     1      -9.831  -0.908  21.527  0.00  0.00    +0.000 HD
ATOM     16  H   UNL     1      -6.844  -3.665  21.287  0.00  0.00    +0.000 HD
ATOM     17  H   UNL     1      -7.809  -5.244  19.128  0.00  0.00    +0.000 HD
BRANCH   9  18
ATOM     18  C   UNL     1      -7.403  -1.387  22.878  0.00  0.00    +0.000 C 
ATOM     19  H   UNL     1      -6.659  -0.747  22.391  0.00  0.00    +0.000 HD
ATOM     20  H   UNL     1      -6.880  -2.179  23.422  0.00  0.00    +0.000 HD
BRANCH  18  21
ATOM     21  C   UNL     1      -8.323  -0.581  23.789  0.00  0.00    +0.000 C 
ATOM     22  H   UNL     1      -9.083  -0.090  23.169  0.00  0.00    +0.000 HD
ATOM     23  H   UNL     1      -7.756   0.211  24.290  0.00  0.00    +0.000 HD
BRANCH  21  24
ATOM     24  C   UNL     1      -8.998  -1.468  24.818  0.00  0.00    +0.000 C 
ATOM     25  H   UNL     1      -9.085  -0.959  25.783  0.00  0.00    +0.000 HD
ATOM     26  H   UNL     1      -8.432  -2.392  24.967  0.00  0.00    +0.000 HD
BRANCH  24  27
ATOM     27  O   UNL     1     -10.293  -1.805  24.346  0.00  0.00    +0.000 OA
ATOM     28  H   UNL     1     -10.937  -1.556  25.033  0.00  0.00    +0.000 HD
ENDBRANCH  24  27
ENDBRANCH  21  24
ENDBRANCH  18  21
ENDBRANCH   9  18
ENDBRANCH   1   4
BRANCH   1  33
ATOM     29  C   UNL     1      -8.747 -11.416  17.217  0.00  0.00    +0.000 A 
ATOM     30  N   UNL     1      -8.883 -10.439  16.343  0.00  0.00    +0.000 NA
ATOM     31  C   UNL     1      -9.092  -9.307  17.087  0.00  0.00    +0.000 A 
ATOM     32  C   UNL     1      -9.292  -7.987  16.663  0.00  0.00    +0.000 A 
ATOM     33  C   UNL     1      -9.521  -6.983  17.622  0.00  0.00    +0.000 A 
ATOM     34  C   UNL     1      -9.565  -7.324  18.985  0.00  0.00    +0.000 A 
ATOM     35  C   UNL     1      -9.337  -8.636  19.428  0.00  0.00    +0.000 A 
ATOM     36  C   UNL     1      -9.100  -9.596  18.445  0.00  0.00    +0.000 A 
ATOM     37  N   UNL     1      -8.829 -10.939  18.503  0.00  0.00    +0.000 N 
ATOM     38  H   UNL     1      -9.263  -7.771  15.601  0.00  0.00    +0.000 HD
ATOM     39  H   UNL     1      -9.768  -6.559  19.732  0.00  0.00    +0.000 HD
ATOM     40  H   UNL     1      -9.350  -8.886  20.484  0.00  0.00    +0.000 HD
ATOM     41  H   UNL     1      -8.712 -11.492  19.342  0.00  0.00    +0.000 HD
BRANCH  29  42
ATOM     42  C   UNL     1      -8.505 -12.855  16.919  0.00  0.00    +0.000 C 
ATOM     43  H   UNL     1      -7.579 -13.198  17.395  0.00  0.00    +0.000 HD
ATOM     44  H   UNL     1      -9.318 -13.441  17.361  0.00  0.00    +0.000 HD
BRANCH  42  45
ATOM     45  C   UNL     1      -8.453 -13.129  15.414  0.00  0.00    +0.000 C 
ATOM     46  H   UNL     1      -9.156 -12.444  14.925  0.00  0.00    +0.000 HD
ATOM     47  H   UNL     1      -7.452 -12.904  15.020  0.00  0.00    +0.000 HD
BRANCH  45  48
ATOM     48  C   UNL     1      -8.827 -14.561  15.056  0.00  0.00    +0.000 C 
ATOM     49  H   UNL     1      -9.809 -14.580  14.571  0.00  0.00    +0.000 HD
ATOM     50  H   UNL     1      -8.098 -15.011  14.373  0.00  0.00    +0.000 HD
BRANCH  48  51
ATOM     51  O   UNL     1      -8.884 -15.346  16.237  0.00  0.00    +0.000 OA
ATOM     52  H   UNL     1      -9.804 -15.654  16.325  0.00  0.00    +0.000 HD
ENDBRANCH  48  51
ENDBRANCH  45  48
ENDBRANCH  42  45
ENDBRANCH  29  42
ENDBRANCH   1  33
TORSDOF 10
ENDMDL
MODEL 8
REMARK VINA RESULT:    -8.667      2.459     10.082
REMARK INTER + INTRA:         -13.855
REMARK INTER:                 -13.440
REMARK INTRA:                  -0.415
REMARK UNBOUND:                -0.628
REMARK  Name = 
REMARK  10 active torsions:
REMARK  status: ('A' for Active; 'I' for Inactive)
REMARK    1  A    between atoms: O_1  and  C_2
REMARK    2  A    between atoms: C_2  and  C_3
REMARK    3  A    between atoms: C_3  and  C_4
REMARK    4  A    between atoms: C_4  and  C_5
REMARK    5  A    between atoms: C_9  and  C_10
REMARK    6  A    between atoms: C_10  and  C_11
REMARK    7  A    between atoms: C_16  and  C_17
REMARK    8  A    between atoms: C_17  and  C_18
REMARK    9  A    between atoms: C_18  and  C_19
REMARK   10  A    between atoms: C_19  and  O_20
REMARK                            x       y       z     vdW  Elec       q    Type
REMARK                         _______ _______ _______ _____ _____    ______ ____
ROOT
ATOM      1  C   UNL     1     -11.431  -5.340  16.429  0.00  0.00    +0.000 C 
ATOM      2  H   UNL     1     -12.496  -5.575  16.295  0.00  0.00    +0.000 HD
ATOM      3  H   UNL     1     -11.069  -5.084  15.426  0.00  0.00    +0.000 HD
ENDROOT
BRANCH   1   4
ATOM      4  C   UNL     1     -11.281  -4.150  17.358  0.00  0.00    +0.000 A 
ATOM      5  C   UNL     1     -10.361  -3.120  17.032  0.00  0.00    +0.000 A 
ATOM      6  C   UNL     1     -10.071  -2.071  17.914  0.00  0.00    +0.000 A 
ATOM      7  C   UNL     1     -10.738  -2.111  19.127  0.00  0.00    +0.000 A 
ATOM      8  N   UNL     1     -10.661  -1.296  20.237  0.00  0.00    +0.000 N 
ATOM      9  C   UNL     1     -11.508  -1.704  21.188  0.00  0.00    +0.000 A 
ATOM     10  N   UNL     1     -12.130  -2.789  20.711  0.00  0.00    +0.000 N 
ATOM     11  C   UNL     1     -11.674  -3.095  19.444  0.00  0.00    +0.000 A 
ATOM     12  C   UNL     1     -11.985  -4.136  18.583  0.00  0.00    +0.000 A 
ATOM     13  H   UNL     1      -9.843  -3.153  16.071  0.00  0.00    +0.000 HD
ATOM     14  H   UNL     1      -9.353  -1.295  17.675  0.00  0.00    +0.000 HD
ATOM     15  H   UNL     1     -10.032  -0.502  20.328  0.00  0.00    +0.000 HD
ATOM     16  H   UNL     1     -12.827  -3.325  21.221  0.00  0.00    +0.000 HD
ATOM     17  H   UNL     1     -12.699  -4.903  18.859  0.00  0.00    +0.000 HD
BRANCH   9  18
ATOM     18  C   UNL     1     -11.724  -1.057  22.514  0.00  0.00    +0.000 C 
ATOM     19  H   UNL     1     -12.696  -1.423  22.860  0.00  0.00    +0.000 HD
ATOM     20  H   UNL     1     -11.808   0.014  22.304  0.00  0.00    +0.000 HD
BRANCH  18  21
ATOM     21  C   UNL     1     -10.623  -1.354  23.527  0.00  0.00    +0.000 C 
ATOM     22  H   UNL     1     -10.479  -0.466  24.154  0.00  0.00    +0.000 HD
ATOM     23  H   UNL     1      -9.676  -1.539  23.009  0.00  0.00    +0.000 HD
BRANCH  21  24
ATOM     24  C   UNL     1     -10.980  -2.542  24.401  0.00  0.00    +0.000 C 
ATOM     25  H   UNL     1     -11.203  -2.229  25.425  0.00  0.00    +0.000 HD
ATOM     26  H   UNL     1     -10.156  -3.262  24.434  0.00  0.00    +0.000 HD
BRANCH  24  27
ATOM     27  O   UNL     1     -12.116  -3.186  23.847  0.00  0.00    +0.000 OA
ATOM     28  H   UNL     1     -12.235  -2.857  22.938  0.00  0.00    +0.000 HD
ENDBRANCH  24  27
ENDBRANCH  21  24
ENDBRANCH  18  21
ENDBRANCH   9  18
ENDBRANCH   1   4
BRANCH   1  33
ATOM     29  C   UNL     1      -9.141 -10.801  16.958  0.00  0.00    +0.000 A 
ATOM     30  N   UNL     1      -9.861 -10.106  16.100  0.00  0.00    +0.000 NA
ATOM     31  C   UNL     1      -9.998  -8.862  16.660  0.00  0.00    +0.000 A 
ATOM     32  C   UNL     1     -10.665  -7.733  16.168  0.00  0.00    +0.000 A 
ATOM     33  C   UNL     1     -10.698  -6.560  16.945  0.00  0.00    +0.000 A 
ATOM     34  C   UNL     1     -10.079  -6.547  18.207  0.00  0.00    +0.000 A 
ATOM     35  C   UNL     1      -9.381  -7.659  18.700  0.00  0.00    +0.000 A 
ATOM     36  C   UNL     1      -9.361  -8.795  17.892  0.00  0.00    +0.000 A 
ATOM     37  N   UNL     1      -8.782 -10.030  18.037  0.00  0.00    +0.000 N 
ATOM     38  H   UNL     1     -11.141  -7.792  15.195  0.00  0.00    +0.000 HD
ATOM     39  H   UNL     1     -10.122  -5.652  18.825  0.00  0.00    +0.000 HD
ATOM     40  H   UNL     1      -8.886  -7.633  19.666  0.00  0.00    +0.000 HD
ATOM     41  H   UNL     1      -8.193 -10.330  18.802  0.00  0.00    +0.000 HD
BRANCH  29  42
ATOM     42  C   UNL     1      -8.713 -12.221  16.821  0.00  0.00    +0.000 C 
ATOM     43  H   UNL     1      -7.697 -12.358  17.208  0.00  0.00    +0.000 HD
ATOM     44  H   UNL     1      -9.368 -12.840  17.444  0.00  0.00    +0.000 HD
BRANCH  42  45
ATOM     45  C   UNL     1      -8.794 -12.708  15.372  0.00  0.00    +0.000 C 
ATOM     46  H   UNL     1      -9.827 -12.574  15.032  0.00  0.00    +0.000 HD
ATOM     47  H   UNL     1      -8.155 -12.090  14.727  0.00  0.00    +0.000 HD
BRANCH  45  48
ATOM     48  C   UNL     1      -8.406 -14.172  15.214  0.00  0.00    +0.000 C 
ATOM     49  H   UNL     1      -7.569 -14.263  14.514  0.00  0.00    +0.000 HD
ATOM     50  H   UNL     1      -8.104 -14.616  16.169  0.00  0.00    +0.000 HD
BRANCH  48  51
ATOM     51  O   UNL     1      -9.511 -14.904  14.706  0.00  0.00    +0.000 OA
ATOM     52  H   UNL     1      -9.176 -15.436  13.961  0.00  0.00    +0.000 HD
ENDBRANCH  48  51
ENDBRANCH  45  48
ENDBRANCH  42  45
ENDBRANCH  29  42
ENDBRANCH   1  33
TORSDOF 10
ENDMDL
MODEL 9
REMARK VINA RESULT:    -8.634      1.705      2.405
REMARK INTER + INTRA:         -13.804
REMARK INTER:                 -12.916
REMARK INTRA:                  -0.888
REMARK UNBOUND:                -0.628
REMARK  Name = 
REMARK  10 active torsions:
REMARK  status: ('A' for Active; 'I' for Inactive)
REMARK    1  A    between atoms: O_1  and  C_2
REMARK    2  A    between atoms: C_2  and  C_3
REMARK    3  A    between atoms: C_3  and  C_4
REMARK    4  A    between atoms: C_4  and  C_5
REMARK    5  A    between atoms: C_9  and  C_10
REMARK    6  A    between atoms: C_10  and  C_11
REMARK    7  A    between atoms: C_16  and  C_17
REMARK    8  A    between atoms: C_17  and  C_18
REMARK    9  A    between atoms: C_18  and  C_19
REMARK   10  A    between atoms: C_19  and  O_20
REMARK                            x       y       z     vdW  Elec       q    Type
REMARK                         _______ _______ _______ _____ _____    ______ ____
ROOT
ATOM      1  C   UNL     1      -6.898  -5.110  19.443  0.00  0.00    +0.000 C 
ATOM      2  H   UNL     1      -5.999  -5.423  19.991  0.00  0.00    +0.000 HD
ATOM      3  H   UNL     1      -6.521  -4.602  18.546  0.00  0.00    +0.000 HD
ENDROOT
BRANCH   1   4
ATOM      4  C   UNL     1      -7.710  -6.329  19.049  0.00  0.00    +0.000 A 
ATOM      5  C   UNL     1      -8.190  -7.204  20.059  0.00  0.00    +0.000 A 
ATOM      6  C   UNL     1      -8.819  -8.420  19.756  0.00  0.00    +0.000 A 
ATOM      7  C   UNL     1      -8.935  -8.711  18.407  0.00  0.00    +0.000 A 
ATOM      8  N   UNL     1      -9.434  -9.817  17.753  0.00  0.00    +0.000 N 
ATOM      9  C   UNL     1      -9.361  -9.661  16.427  0.00  0.00    +0.000 A 
ATOM     10  N   UNL     1      -8.805  -8.463  16.210  0.00  0.00    +0.000 N 
ATOM     11  C   UNL     1      -8.503  -7.841  17.405  0.00  0.00    +0.000 A 
ATOM     12  C   UNL     1      -7.889  -6.629  17.681  0.00  0.00    +0.000 A 
ATOM     13  H   UNL     1      -8.048  -6.937  21.108  0.00  0.00    +0.000 HD
ATOM     14  H   UNL     1      -9.167  -9.098  20.526  0.00  0.00    +0.000 HD
ATOM     15  H   UNL     1      -9.793 -10.648  18.216  0.00  0.00    +0.000 HD
ATOM     16  H   UNL     1      -8.613  -8.075  15.291  0.00  0.00    +0.000 HD
ATOM     17  H   UNL     1      -7.541  -5.980  16.886  0.00  0.00    +0.000 HD
BRANCH   9  18
ATOM     18  C   UNL     1      -9.828 -10.633  15.397  0.00  0.00    +0.000 C 
ATOM     19  H   UNL     1     -10.325 -10.027  14.632  0.00  0.00    +0.000 HD
ATOM     20  H   UNL     1     -10.581 -11.248  15.900  0.00  0.00    +0.000 HD
BRANCH  18  21
ATOM     21  C   UNL     1      -8.708 -11.478  14.800  0.00  0.00    +0.000 C 
ATOM     22  H   UNL     1      -7.754 -10.971  14.984  0.00  0.00    +0.000 HD
ATOM     23  H   UNL     1      -8.831 -11.551  13.713  0.00  0.00    +0.000 HD
BRANCH  21  24
ATOM     24  C   UNL     1      -8.675 -12.866  15.413  0.00  0.00    +0.000 C 
ATOM     25  H   UNL     1      -7.886 -13.479  14.966  0.00  0.00    +0.000 HD
ATOM     26  H   UNL     1      -9.631 -13.379  15.268  0.00  0.00    +0.000 HD
BRANCH  24  27
ATOM     27  O   UNL     1      -8.439 -12.740  16.806  0.00  0.00    +0.000 OA
ATOM     28  H   UNL     1      -7.591 -13.174  17.008  0.00  0.00    +0.000 HD
ENDBRANCH  24  27
ENDBRANCH  21  24
ENDBRANCH  18  21
ENDBRANCH   9  18
ENDBRANCH   1   4
BRANCH   1  33
ATOM     29  C   UNL     1      -8.912  -1.818  23.965  0.00  0.00    +0.000 A 
ATOM     30  N   UNL     1      -7.957  -2.693  23.724  0.00  0.00    +0.000 NA
ATOM     31  C   UNL     1      -8.098  -3.035  22.404  0.00  0.00    +0.000 A 
ATOM     32  C   UNL     1      -7.341  -3.923  21.628  0.00  0.00    +0.000 A 
ATOM     33  C   UNL     1      -7.699  -4.140  20.284  0.00  0.00    +0.000 A 
ATOM     34  C   UNL     1      -8.819  -3.479  19.750  0.00  0.00    +0.000 A 
ATOM     35  C   UNL     1      -9.569  -2.564  20.504  0.00  0.00    +0.000 A 
ATOM     36  C   UNL     1      -9.170  -2.368  21.827  0.00  0.00    +0.000 A 
ATOM     37  N   UNL     1      -9.643  -1.562  22.830  0.00  0.00    +0.000 N 
ATOM     38  H   UNL     1      -6.494  -4.421  22.085  0.00  0.00    +0.000 HD
ATOM     39  H   UNL     1      -9.119  -3.661  18.719  0.00  0.00    +0.000 HD
ATOM     40  H   UNL     1     -10.418  -2.040  20.077  0.00  0.00    +0.000 HD
ATOM     41  H   UNL     1     -10.399  -0.895  22.758  0.00  0.00    +0.000 HD
BRANCH  29  42
ATOM     42  C   UNL     1      -9.195  -1.139  25.261  0.00  0.00    +0.000 C 
ATOM     43  H   UNL     1      -8.401  -0.424  25.504  0.00  0.00    +0.000 HD
ATOM     44  H   UNL     1     -10.116  -0.557  25.151  0.00  0.00    +0.000 HD
BRANCH  42  45
ATOM     45  C   UNL     1      -9.370  -2.139  26.406  0.00  0.00    +0.000 C 
ATOM     46  H   UNL     1     -10.405  -2.067  26.758  0.00  0.00    +0.000 HD
ATOM     47  H   UNL     1      -9.220  -3.165  26.043  0.00  0.00    +0.000 HD
BRANCH  45  48
ATOM     48  C   UNL     1      -8.430  -1.875  27.575  0.00  0.00    +0.000 C 
ATOM     49  H   UNL     1      -7.535  -1.350  27.223  0.00  0.00    +0.000 HD
ATOM     50  H   UNL     1      -8.906  -1.260  28.346  0.00  0.00    +0.000 HD
BRANCH  48  51
ATOM     51  O   UNL     1      -8.039  -3.108  28.159  0.00  0.00    +0.000 OA
ATOM     52  H   UNL     1      -7.068  -3.086  28.238  0.00  0.00    +0.000 HD
ENDBRANCH  48  51
ENDBRANCH  45  48
ENDBRANCH  42  45
ENDBRANCH  29  42
ENDBRANCH   1  33
TORSDOF 10
ENDMDL
