REMARK  Name = 
REMARK  5 active torsions:
REMARK  status: ('A' for Active; 'I' for Inactive)
REMARK    1  A    between atoms: C_1  and  C_2
REMARK    2  A    between atoms: C_6  and  N_7
REMARK    3  A    between atoms: N_7  and  C_8
REMARK    4  A    between atoms: N_13  and  C_14
REMARK    5  A    between atoms: C_24  and  N_25
REMARK                            x       y       z     vdW  Elec       q    Type
REMARK                         _______ _______ _______ _____ _____    ______ ____
ROOT
ATOM      1  C   UNL     1      -0.196   0.298  -2.453  0.00  0.00    +0.000 A 
ATOM      2  N   UNL     1       0.959   0.849  -2.074  0.00  0.00    +0.000 N 
ATOM      3  C   UNL     1       1.332   0.828  -0.804  0.00  0.00    +0.000 A 
ATOM      4  N   UNL     1       0.604   0.269   0.174  0.00  0.00    +0.000 NA
ATOM      5  C   UNL     1      -0.544  -0.346  -0.166  0.00  0.00    +0.000 A 
ATOM      6  N   UNL     1      -1.321  -0.992   0.808  0.00  0.00    +0.000 N 
ATOM      7  C   UNL     1      -0.964  -0.415  -1.512  0.00  0.00    +0.000 A 
ATOM      8  H   UNL     1       1.492   1.344  -2.796  0.00  0.00    +0.000 HD
ATOM      9  H   UNL     1       2.262   1.312  -0.540  0.00  0.00    +0.000 HD
ATOM     10  H   UNL     1      -2.257  -0.586   0.831  0.00  0.00    +0.000 HD
ENDROOT
BRANCH   6  11
ATOM     11  C   UNL     1      -0.770  -1.225   2.164  0.00  0.00    +0.000 C 
ATOM     12  C   UNL     1      -0.644   0.083   2.985  0.00  0.00    +0.000 C 
ATOM     13  C   UNL     1      -0.047  -0.212   4.374  0.00  0.00    +0.000 C 
ATOM     14  C   UNL     1      -0.992  -1.142   5.149  0.00  0.00    +0.000 C 
ATOM     15  C   UNL     1      -1.195  -2.450   4.366  0.00  0.00    +0.000 C 
ATOM     16  C   UNL     1       0.168  -3.150   4.241  0.00  0.00    +0.000 C 
ATOM     17  C   UNL     1       1.146  -2.254   3.475  0.00  0.00    +0.000 C 
ATOM     18  C   UNL     1       1.317  -0.904   4.196  0.00  0.00    +0.000 C 
ATOM     19  C   UNL     1       0.573  -2.000   2.080  0.00  0.00    +0.000 C 
ATOM     20  C   UNL     1      -1.754  -2.137   2.958  0.00  0.00    +0.000 C 
ATOM     21  H   UNL     1      -1.632   0.552   3.100  0.00  0.00    +0.000 HD
ATOM     22  H   UNL     1      -0.020   0.827   2.480  0.00  0.00    +0.000 HD
ATOM     23  H   UNL     1       0.085   0.726   4.928  0.00  0.00    +0.000 HD
ATOM     24  H   UNL     1      -1.957  -0.649   5.316  0.00  0.00    +0.000 HD
ATOM     25  H   UNL     1      -0.571  -1.359   6.140  0.00  0.00    +0.000 HD
ATOM     26  H   UNL     1      -1.892  -3.100   4.906  0.00  0.00    +0.000 HD
ATOM     27  H   UNL     1       0.052  -4.109   3.722  0.00  0.00    +0.000 HD
ATOM     28  H   UNL     1       0.573  -3.373   5.235  0.00  0.00    +0.000 HD
ATOM     29  H   UNL     1       2.118  -2.751   3.385  0.00  0.00    +0.000 HD
ATOM     30  H   UNL     1       1.990  -0.255   3.619  0.00  0.00    +0.000 HD
ATOM     31  H   UNL     1       1.787  -1.062   5.172  0.00  0.00    +0.000 HD
ATOM     32  H   UNL     1       0.417  -2.953   1.554  0.00  0.00    +0.000 HD
ATOM     33  H   UNL     1       1.333  -1.468   1.505  0.00  0.00    +0.000 HD
ATOM     34  H   UNL     1      -2.735  -1.650   3.053  0.00  0.00    +0.000 HD
ATOM     35  H   UNL     1      -1.930  -3.073   2.412  0.00  0.00    +0.000 HD
ENDBRANCH   6  11
BRANCH   7  36
ATOM     36  N   UNL     1      -2.217  -0.979  -1.871  0.00  0.00    +0.000 N 
ATOM     37  H   UNL     1      -2.523  -1.632  -1.140  0.00  0.00    +0.000 HD
ATOM     38  H   UNL     1      -2.198  -1.462  -2.767  0.00  0.00    +0.000 HD
ENDBRANCH   7  36
BRANCH   1  39
ATOM     39  N   UNL     1      -0.613   0.438  -3.793  0.00  0.00    +0.000 N 
ATOM     40  H   UNL     1      -1.633   0.449  -3.809  0.00  0.00    +0.000 HD
BRANCH  39  45
ATOM     41  C   UNL     1       1.468   3.139  -5.018  0.00  0.00    +0.000 A 
ATOM     42  C   UNL     1       0.782   3.566  -6.149  0.00  0.00    +0.000 A 
ATOM     43  C   UNL     1      -0.371   2.891  -6.527  0.00  0.00    +0.000 A 
ATOM     44  C   UNL     1      -0.814   1.815  -5.768  0.00  0.00    +0.000 A 
ATOM     45  C   UNL     1      -0.112   1.471  -4.620  0.00  0.00    +0.000 A 
ATOM     46  N   UNL     1       1.041   2.098  -4.248  0.00  0.00    +0.000 NA
ATOM     47  H   UNL     1       1.132   4.411  -6.735  0.00  0.00    +0.000 HD
ATOM     48  H   UNL     1      -0.931   3.211  -7.403  0.00  0.00    +0.000 HD
ATOM     49  H   UNL     1      -1.717   1.288  -6.059  0.00  0.00    +0.000 HD
BRANCH  41  50
ATOM     50  C   UNL     1       2.737   3.826  -4.602  0.00  0.00    +0.000 C 
ATOM     51  H   UNL     1       2.896   4.756  -5.157  0.00  0.00    +0.000 HD
ATOM     52  H   UNL     1       3.593   3.167  -4.778  0.00  0.00    +0.000 HD
ATOM     53  H   UNL     1       2.693   4.074  -3.536  0.00  0.00    +0.000 HD
ENDBRANCH  41  50
ENDBRANCH  39  45
ENDBRANCH   1  39
TORSDOF 5
