REMARK  Name = 
REMARK  9 active torsions:
REMARK  status: ('A' for Active; 'I' for Inactive)
REMARK    1  A    between atoms: C_1  and  C_2
REMARK    2  A    between atoms: N_4  and  C_5
REMARK    3  A    between atoms: C_8  and  C_9
REMARK    4  A    between atoms: C_12  and  C_13
REMARK    5  A    between atoms: C_13  and  C_14
REMARK    6  A    between atoms: C_13  and  C_15
REMARK    7  A    between atoms: C_13  and  C_16
REMARK    8  A    between atoms: C_19  and  N_20
REMARK    9  A    between atoms: C_21  and  C_23
REMARK                            x       y       z     vdW  Elec       q    Type
REMARK                         _______ _______ _______ _____ _____    ______ ____
ROOT
ATOM      1  C   UNL     1      -0.709   2.929   0.557  0.00  0.00    +0.000 A 
ATOM      2  N   UNL     1      -0.010   4.076   0.578  0.00  0.00    +0.000 NA
ATOM      3  N   UNL     1       1.277   3.686   0.502  0.00  0.00    +0.000 N 
ATOM      4  C   UNL     1       1.411   2.331   0.450  0.00  0.00    +0.000 A 
ATOM      5  C   UNL     1       0.146   1.799   0.518  0.00  0.00    +0.000 A 
ATOM      6  C   UNL     1      -0.083   0.323   0.523  0.00  0.00    +0.000 C 
ATOM      7  C   UNL     1       1.233  -0.423   0.888  0.00  0.00    +0.000 C 
ATOM      8  C   UNL     1       2.498   0.230   0.272  0.00  0.00    +0.000 C 
ATOM      9  O   UNL     1       3.487  -0.417  -0.073  0.00  0.00    +0.000 OA
ATOM     10  N   UNL     1       2.569   1.610   0.306  0.00  0.00    +0.000 N 
ATOM     11  H   UNL     1      -0.854   0.092   1.271  0.00  0.00    +0.000 HD
ATOM     12  H   UNL     1       1.183  -1.462   0.536  0.00  0.00    +0.000 HD
ATOM     13  H   UNL     1       3.443   2.041   0.036  0.00  0.00    +0.000 HD
ENDROOT
BRANCH   6  14
ATOM     14  C   UNL     1      -0.586  -0.070  -0.860  0.00  0.00    +0.000 A 
ATOM     15  C   UNL     1       0.148   0.173  -2.028  0.00  0.00    +0.000 A 
ATOM     16  C   UNL     1      -0.269  -0.325  -3.265  0.00  0.00    +0.000 A 
ATOM     17  C   UNL     1      -1.445  -1.076  -3.398  0.00  0.00    +0.000 A 
ATOM     18  C   UNL     1      -2.197  -1.292  -2.229  0.00  0.00    +0.000 A 
ATOM     19  C   UNL     1      -1.772  -0.807  -0.982  0.00  0.00    +0.000 A 
ATOM     20  H   UNL     1       1.077   0.737  -2.004  0.00  0.00    +0.000 HD
ATOM     21  H   UNL     1       0.372  -0.118  -4.117  0.00  0.00    +0.000 HD
ATOM     22  H   UNL     1      -3.118  -1.870  -2.264  0.00  0.00    +0.000 HD
ATOM     23  H   UNL     1      -2.371  -1.039  -0.104  0.00  0.00    +0.000 HD
BRANCH  17  24
ATOM     24  C   UNL     1      -1.898  -1.657  -4.747  0.00  0.00    +0.000 C 
BRANCH  24  25
ATOM     25  C   UNL     1      -0.950  -1.305  -5.918  0.00  0.00    +0.000 C 
ATOM     26  H   UNL     1       0.057  -1.710  -5.756  0.00  0.00    +0.000 HD
ATOM     27  H   UNL     1      -0.863  -0.220  -6.052  0.00  0.00    +0.000 HD
ATOM     28  H   UNL     1      -1.315  -1.719  -6.864  0.00  0.00    +0.000 HD
ENDBRANCH  24  25
BRANCH  24  29
ATOM     29  C   UNL     1      -1.962  -3.198  -4.662  0.00  0.00    +0.000 C 
ATOM     30  H   UNL     1      -0.979  -3.623  -4.427  0.00  0.00    +0.000 HD
ATOM     31  H   UNL     1      -2.293  -3.631  -5.613  0.00  0.00    +0.000 HD
ATOM     32  H   UNL     1      -2.662  -3.542  -3.892  0.00  0.00    +0.000 HD
ENDBRANCH  24  29
BRANCH  24  33
ATOM     33  C   UNL     1      -3.294  -1.113  -5.113  0.00  0.00    +0.000 C 
ATOM     34  H   UNL     1      -3.285  -0.019  -5.181  0.00  0.00    +0.000 HD
ATOM     35  H   UNL     1      -4.055  -1.393  -4.377  0.00  0.00    +0.000 HD
ATOM     36  H   UNL     1      -3.626  -1.503  -6.082  0.00  0.00    +0.000 HD
ENDBRANCH  24  33
ENDBRANCH  17  24
ENDBRANCH   6  14
BRANCH   1  37
ATOM     37  C   UNL     1      -2.193   2.965   0.560  0.00  0.00    +0.000 C 
ATOM     38  H   UNL     1      -2.568   3.994   0.594  0.00  0.00    +0.000 HD
ATOM     39  H   UNL     1      -2.595   2.430   1.426  0.00  0.00    +0.000 HD
ATOM     40  H   UNL     1      -2.585   2.500  -0.351  0.00  0.00    +0.000 HD
ENDBRANCH   1  37
BRANCH   3  41
ATOM     41  C   UNL     1       2.331   4.668   0.528  0.00  0.00    +0.000 C 
ATOM     42  H   UNL     1       1.900   5.671   0.563  0.00  0.00    +0.000 HD
ATOM     43  H   UNL     1       2.934   4.550  -0.374  0.00  0.00    +0.000 HD
ATOM     44  H   UNL     1       2.939   4.494   1.421  0.00  0.00    +0.000 HD
ENDBRANCH   3  41
BRANCH   7  45
ATOM     45  N   UNL     1       1.475  -0.444   2.341  0.00  0.00    +0.000 N 
ATOM     46  C   UNL     1       0.929  -1.409   3.152  0.00  0.00    +0.000 C 
ATOM     47  O   UNL     1       0.213  -2.309   2.727  0.00  0.00    +0.000 OA
ATOM     48  H   UNL     1       2.134   0.225   2.718  0.00  0.00    +0.000 HD
BRANCH  46  49
ATOM     49  C   UNL     1       1.253  -1.314   4.600  0.00  0.00    +0.000 A 
ATOM     50  C   UNL     1       1.470  -0.083   5.233  0.00  0.00    +0.000 A 
ATOM     51  C   UNL     1       1.710  -0.040   6.609  0.00  0.00    +0.000 A 
ATOM     52  C   UNL     1       1.731  -1.219   7.354  0.00  0.00    +0.000 A 
ATOM     53  C   UNL     1       1.521  -2.447   6.725  0.00  0.00    +0.000 A 
ATOM     54  C   UNL     1       1.281  -2.495   5.351  0.00  0.00    +0.000 A 
ATOM     55  H   UNL     1       1.419   0.852   4.684  0.00  0.00    +0.000 HD
ATOM     56  H   UNL     1       1.860   0.916   7.106  0.00  0.00    +0.000 HD
ATOM     57  H   UNL     1       1.900  -1.182   8.427  0.00  0.00    +0.000 HD
ATOM     58  H   UNL     1       1.533  -3.366   7.306  0.00  0.00    +0.000 HD
ATOM     59  H   UNL     1       1.108  -3.454   4.867  0.00  0.00    +0.000 HD
ENDBRANCH  46  49
ENDBRANCH   7  45
TORSDOF 9
