REMARK  Name = 
REMARK  6 active torsions:
REMARK  status: ('A' for Active; 'I' for Inactive)
REMARK    1  A    between atoms: C_1  and  C_2
REMARK    2  A    between atoms: C_2  and  O_3
REMARK    3  A    between atoms: C_2  and  C_16
REMARK    4  A    between atoms: O_3  and  C_4
REMARK    5  A    between atoms: C_4  and  C_6
REMARK    6  A    between atoms: C_12  and  N_13
REMARK                            x       y       z     vdW  Elec       q    Type
REMARK                         _______ _______ _______ _____ _____    ______ ____
ROOT
ATOM      1  C   UNL     1      -0.033   0.694  -1.649  0.00  0.00    +0.000 C 
ATOM      2  H   UNL     1       0.320  -0.168  -2.222  0.00  0.00    +0.000 HD
ENDROOT
BRANCH   1   3
ATOM      3  C   UNL     1       0.448   0.577  -0.164  0.00  0.00    +0.000 C 
ATOM      4  O   UNL     1      -0.274   1.012   0.738  0.00  0.00    +0.000 OA
ATOM      5  N   UNL     1       1.664  -0.059   0.141  0.00  0.00    +0.000 N 
ATOM      6  C   UNL     1       1.964  -0.331   1.557  0.00  0.00    +0.000 C 
ATOM      7  C   UNL     1       2.943   0.680   2.157  0.00  0.00    +0.000 C 
ATOM      8  C   UNL     1       4.406   0.464   1.766  0.00  0.00    +0.000 C 
ATOM      9  C   UNL     1       4.668   0.456   0.264  0.00  0.00    +0.000 C 
ATOM     10  C   UNL     1       4.057  -0.763  -0.421  0.00  0.00    +0.000 C 
ATOM     11  C   UNL     1       2.612  -0.524  -0.868  0.00  0.00    +0.000 C 
ATOM     12  H   UNL     1       2.327  -1.360   1.665  0.00  0.00    +0.000 HD
ATOM     13  H   UNL     1       1.037  -0.284   2.139  0.00  0.00    +0.000 HD
ATOM     14  H   UNL     1       2.887   0.605   3.250  0.00  0.00    +0.000 HD
ATOM     15  H   UNL     1       2.639   1.699   1.893  0.00  0.00    +0.000 HD
ATOM     16  H   UNL     1       4.766  -0.476   2.202  0.00  0.00    +0.000 HD
ATOM     17  H   UNL     1       5.006   1.262   2.221  0.00  0.00    +0.000 HD
ATOM     18  H   UNL     1       5.754   0.436   0.110  0.00  0.00    +0.000 HD
ATOM     19  H   UNL     1       4.305   1.384  -0.194  0.00  0.00    +0.000 HD
ATOM     20  H   UNL     1       4.143  -1.653   0.217  0.00  0.00    +0.000 HD
ATOM     21  H   UNL     1       4.645  -0.984  -1.321  0.00  0.00    +0.000 HD
ATOM     22  H   UNL     1       2.214  -1.450  -1.298  0.00  0.00    +0.000 HD
ATOM     23  H   UNL     1       2.640   0.228  -1.659  0.00  0.00    +0.000 HD
ENDBRANCH   1   3
BRANCH   1  24
ATOM     24  C   UNL     1       0.449   1.992  -2.327  0.00  0.00    +0.000 C 
ATOM     25  H   UNL     1       1.507   1.939  -2.615  0.00  0.00    +0.000 HD
ATOM     26  H   UNL     1       0.337   2.865  -1.673  0.00  0.00    +0.000 HD
ATOM     27  H   UNL     1      -0.115   2.220  -3.239  0.00  0.00    +0.000 HD
ENDBRANCH   1  24
BRANCH   1  28
ATOM     28  O   UNL     1      -1.506   0.726  -1.600  0.00  0.00    +0.000 OA
BRANCH  28  29
ATOM     29  C   UNL     1      -2.185  -0.457  -1.636  0.00  0.00    +0.000 C 
ATOM     30  O   UNL     1      -1.766  -1.483  -2.114  0.00  0.00    +0.000 OA
BRANCH  29  31
ATOM     31  C   UNL     1      -3.516  -0.352  -0.908  0.00  0.00    +0.000 A 
ATOM     32  N   UNL     1      -4.191   0.827  -1.010  0.00  0.00    +0.000 NA
ATOM     33  C   UNL     1      -5.314   0.954  -0.267  0.00  0.00    +0.000 A 
ATOM     34 CL   UNL     1      -6.016   2.527  -0.372  0.00  0.00    +0.000 Cl
ATOM     35  C   UNL     1      -5.862  -0.051   0.542  0.00  0.00    +0.000 A 
ATOM     36 CL   UNL     1      -7.289   0.195   1.495  0.00  0.00    +0.000 Cl
ATOM     37  C   UNL     1      -5.196  -1.287   0.589  0.00  0.00    +0.000 A 
ATOM     38  C   UNL     1      -3.978  -1.422  -0.122  0.00  0.00    +0.000 A 
ATOM     39 CL   UNL     1      -3.082  -2.896   0.084  0.00  0.00    +0.000 Cl
BRANCH  37  40
ATOM     40  N   UNL     1      -5.592  -2.277   1.529  0.00  0.00    +0.000 N 
ATOM     41  H   UNL     1      -6.575  -2.249   1.795  0.00  0.00    +0.000 HD
ATOM     42  H   UNL     1      -5.251  -3.216   1.328  0.00  0.00    +0.000 HD
ENDBRANCH  37  40
ENDBRANCH  29  31
ENDBRANCH  28  29
ENDBRANCH   1  28
TORSDOF 6
