
 OpenBabel01112423033D

 44 46  0  0  0  0  0  0  0  0999 V2000
    0.8889    0.1847   -0.0556 C   0  0  0  0  0  0  0  0  0  0  0  0
    2.3910    0.0780   -0.0287 C   0  0  0  0  0  0  0  0  0  0  0  0
    3.1330    1.3241   -0.0598 C   0  0  0  0  0  0  0  0  0  0  0  0
    4.4746    1.3201   -0.0278 C   0  0  0  0  0  0  0  0  0  0  0  0
    5.1999    2.4871   -0.1109 O   0  0  0  0  0  0  0  0  0  0  0  0
    5.1975    0.1377    0.0669 O   0  0  0  0  0  0  0  0  0  0  0  0
    4.5358   -1.0846    0.0200 C   0  0  0  0  0  0  0  0  0  0  0  0
    5.2385   -2.2304    0.0102 C   0  0  0  0  0  0  0  0  0  0  0  0
    4.5243   -3.5358   -0.0845 C   0  0  0  0  0  0  0  0  0  0  0  0
    5.1682   -4.6522   -0.0869 N   0  3  0  0  0  0  0  0  0  0  0  0
    4.5665   -6.0030   -0.2081 C   0  0  0  0  0  0  0  0  0  0  0  0
    5.6749   -7.0062   -0.1565 C   0  0  0  0  0  0  0  0  0  0  0  0
    6.0581   -7.3974    0.9339 O   0  0  0  0  0  0  0  0  0  0  0  0
    6.2518   -7.2710   -1.3940 N   0  0  0  0  0  0  0  0  0  0  0  0
    7.3356   -8.1595   -1.5530 C   0  0  0  0  0  0  0  0  0  0  0  0
    7.6639   -9.0928   -0.5732 C   0  0  0  0  0  0  0  0  0  0  0  0
    8.8417   -9.8289   -0.6548 C   0  0  0  0  0  0  0  0  0  0  0  0
    9.6990   -9.6484   -1.7368 C   0  0  0  0  0  0  0  0  0  0  0  0
   11.0307  -10.3052   -1.8109 C   0  0  0  0  0  0  0  0  0  0  0  0
   11.4273  -11.1038   -0.7768 N   0  0  0  0  0  0  0  0  0  0  0  0
   11.7766  -10.1075   -2.7626 O   0  0  0  0  0  0  0  0  0  0  0  0
    9.3136   -8.7901   -2.7790 C   0  0  0  0  0  0  0  0  0  0  0  0
    8.1231   -8.0586   -2.7002 C   0  0  0  0  0  0  0  0  0  0  0  0
    3.0371   -3.5161   -0.1723 C   0  0  0  0  0  0  0  0  0  0  0  0
    2.3711   -2.3594   -0.1033 C   0  0  0  0  0  0  0  0  0  0  0  0
    3.0700   -1.0915   -0.0251 C   0  0  0  0  0  0  0  0  0  0  0  0
    0.5396    1.2199   -0.1127 H   0  0  0  0  0  0  0  0  0  0  0  0
    0.4599   -0.2548    0.8524 H   0  0  0  0  0  0  0  0  0  0  0  0
    0.4824   -0.3394   -0.9278 H   0  0  0  0  0  0  0  0  0  0  0  0
    2.5770    2.2516   -0.1479 H   0  0  0  0  0  0  0  0  0  0  0  0
    4.5883    3.2331   -0.2300 H   0  0  0  0  0  0  0  0  0  0  0  0
    6.3220   -2.1963    0.0510 H   0  0  0  0  0  0  0  0  0  0  0  0
    6.1890   -4.6351    0.0273 H   0  0  0  0  0  0  0  0  0  0  0  0
    4.0155   -6.0688   -1.1463 H   0  0  0  0  0  0  0  0  0  0  0  0
    3.9034   -6.1692    0.6519 H   0  0  0  0  0  0  0  0  0  0  0  0
    6.0497   -6.6822   -2.1939 H   0  0  0  0  0  0  0  0  0  0  0  0
    7.0319   -9.2643    0.2932 H   0  0  0  0  0  0  0  0  0  0  0  0
    9.0596  -10.5127    0.1568 H   0  0  0  0  0  0  0  0  0  0  0  0
   10.9249  -11.2412    0.0862 H   0  0  0  0  0  0  0  0  0  0  0  0
   12.3639  -11.4831   -0.8303 H   0  0  0  0  0  0  0  0  0  0  0  0
    9.9618   -8.6656   -3.6459 H   0  0  0  0  0  0  0  0  0  0  0  0
    7.8754   -7.3821   -3.5130 H   0  0  0  0  0  0  0  0  0  0  0  0
    2.4704   -4.4345   -0.2758 H   0  0  0  0  0  0  0  0  0  0  0  0
    1.2859   -2.3803   -0.1336 H   0  0  0  0  0  0  0  0  0  0  0  0
  1  2  1  0  0  0  0
  1 27  1  0  0  0  0
  1 28  1  0  0  0  0
  1 29  1  0  0  0  0
  2  3  1  0  0  0  0
  2 26  2  0  0  0  0
  3  4  2  0  0  0  0
  3 30  1  0  0  0  0
  4  5  1  0  0  0  0
  4  6  1  0  0  0  0
  5 31  1  0  0  0  0
  6  7  1  0  0  0  0
  7  8  2  0  0  0  0
  7 26  1  0  0  0  0
  8  9  1  0  0  0  0
  8 32  1  0  0  0  0
  9 10  2  0  0  0  0
  9 24  1  0  0  0  0
 10 11  1  0  0  0  0
 10 33  1  0  0  0  0
 11 12  1  0  0  0  0
 11 34  1  0  0  0  0
 11 35  1  0  0  0  0
 12 13  2  0  0  0  0
 12 14  1  0  0  0  0
 14 15  1  0  0  0  0
 14 36  1  0  0  0  0
 15 16  1  0  0  0  0
 15 23  2  0  0  0  0
 16 17  2  0  0  0  0
 16 37  1  0  0  0  0
 17 18  1  0  0  0  0
 17 38  1  0  0  0  0
 18 19  1  0  0  0  0
 18 22  2  0  0  0  0
 19 20  1  0  0  0  0
 19 21  2  0  0  0  0
 20 39  1  0  0  0  0
 20 40  1  0  0  0  0
 22 23  1  0  0  0  0
 22 41  1  0  0  0  0
 23 42  1  0  0  0  0
 24 25  2  0  0  0  0
 24 43  1  0  0  0  0
 25 26  1  0  0  0  0
 25 44  1  0  0  0  0
M  CHG  1  10   1
M  END
$$$$
