MODEL 1
REMARK VINA RESULT:   -11.191      0.000      0.000
REMARK INTER + INTRA:         -14.783
REMARK INTER:                 -14.135
REMARK INTRA:                  -0.648
REMARK UNBOUND:                -0.648
REMARK  Name = 
REMARK  5 active torsions:
REMARK  status: ('A' for Active; 'I' for Inactive)
REMARK    1  A    between atoms: C_1  and  C_2
REMARK    2  A    between atoms: C_8  and  N_9
REMARK    3  A    between atoms: C_10  and  C_12
REMARK    4  A    between atoms: C_17  and  C_18
REMARK    5  A    between atoms: C_23  and  C_24
REMARK                            x       y       z     vdW  Elec       q    Type
REMARK                         _______ _______ _______ _____ _____    ______ ____
ROOT
ATOM      1  C   UNL     1      -9.727  -7.552  17.460  0.00  0.00    +0.000 A 
ATOM      2  C   UNL     1     -10.773  -6.679  17.885  0.00  0.00    +0.000 A 
ATOM      3  C   UNL     1     -10.144  -5.603  18.448  0.00  0.00    +0.000 A 
ATOM      4  N   UNL     1      -8.804  -5.881  18.376  0.00  0.00    +0.000 N 
ATOM      5  N   UNL     1      -8.517  -6.982  17.645  0.00  0.00    +0.000 NA
ATOM      6  C   UNL     1      -7.775  -5.023  18.934  0.00  0.00    +0.000 C 
ATOM      7  C   UNL     1      -8.383  -3.967  19.884  0.00  0.00    +0.000 C 
ATOM      8  C   UNL     1      -9.687  -3.375  19.325  0.00  0.00    +0.000 C 
ATOM      9  N   UNL     1     -10.605  -4.482  19.044  0.00  0.00    +0.000 N 
ATOM     10  H   UNL     1     -11.836  -6.866  17.824  0.00  0.00    +0.000 HD
ATOM     11  H   UNL     1      -7.348  -4.501  18.067  0.00  0.00    +0.000 HD
ATOM     12  H   UNL     1      -7.647  -3.175  20.076  0.00  0.00    +0.000 HD
ATOM     13  H   UNL     1      -8.605  -4.432  20.855  0.00  0.00    +0.000 HD
ATOM     14  H   UNL     1      -9.476  -2.857  18.380  0.00  0.00    +0.000 HD
ATOM     15  H   UNL     1     -11.578  -4.202  18.916  0.00  0.00    +0.000 HD
ENDROOT
BRANCH   8  16
ATOM     16  C   UNL     1     -10.240  -2.376  20.295  0.00  0.00    +0.000 A 
ATOM     17  C   UNL     1      -9.670  -1.572  21.264  0.00  0.00    +0.000 A 
ATOM     18  C   UNL     1     -10.726  -0.825  21.838  0.00  0.00    +0.000 A 
ATOM     19  C   UNL     1     -11.870  -1.215  21.185  0.00  0.00    +0.000 A 
ATOM     20  O   UNL     1     -11.586  -2.156  20.246  0.00  0.00    +0.000 OA
ATOM     21  H   UNL     1      -8.618  -1.531  21.515  0.00  0.00    +0.000 HD
ATOM     22  H   UNL     1     -10.661  -0.087  22.628  0.00  0.00    +0.000 HD
ATOM     23  H   UNL     1     -12.910  -0.933  21.264  0.00  0.00    +0.000 HD
ENDBRANCH   8  16
BRANCH   1  25
ATOM     24  N   UNL     1      -8.836  -9.765  17.103  0.00  0.00    +0.000 N 
ATOM     25  C   UNL     1      -9.924  -8.909  16.928  0.00  0.00    +0.000 C 
ATOM     26  O   UNL     1     -11.001  -9.206  16.418  0.00  0.00    +0.000 OA
ATOM     27  H   UNL     1      -8.020  -9.321  17.504  0.00  0.00    +0.000 HD
BRANCH  24  34
ATOM     28  C   UNL     1      -8.637 -11.628  15.499  0.00  0.00    +0.000 A 
ATOM     29  C   UNL     1      -8.569 -13.018  15.262  0.00  0.00    +0.000 A 
ATOM     30  C   UNL     1      -8.667 -13.924  16.310  0.00  0.00    +0.000 A 
ATOM     31  F   UNL     1      -8.600 -15.238  16.063  0.00  0.00    +0.000 F 
ATOM     32  C   UNL     1      -8.831 -13.481  17.607  0.00  0.00    +0.000 A 
ATOM     33  C   UNL     1      -8.895 -12.109  17.858  0.00  0.00    +0.000 A 
ATOM     34  C   UNL     1      -8.798 -11.157  16.824  0.00  0.00    +0.000 A 
ATOM     35  H   UNL     1      -8.439 -13.414  14.258  0.00  0.00    +0.000 HD
ATOM     36  H   UNL     1      -8.904 -14.191  18.423  0.00  0.00    +0.000 HD
ATOM     37  H   UNL     1      -9.004 -11.824  18.897  0.00  0.00    +0.000 HD
BRANCH  28  38
ATOM     38  C   UNL     1      -8.531 -10.724  14.300  0.00  0.00    +0.000 C 
ATOM     39  H   UNL     1      -9.323 -10.939  13.571  0.00  0.00    +0.000 HD
ATOM     40  H   UNL     1      -7.573 -10.868  13.793  0.00  0.00    +0.000 HD
ATOM     41  H   UNL     1      -8.649  -9.676  14.593  0.00  0.00    +0.000 HD
ENDBRANCH  28  38
ENDBRANCH  24  34
ENDBRANCH   1  25
BRANCH   6  42
ATOM     42  C   UNL     1      -6.673  -5.807  19.640  0.00  0.00    +0.000 C 
ATOM     43  F   UNL     1      -7.017  -7.043  20.056  0.00  0.00    +0.000 F 
ATOM     44  F   UNL     1      -5.607  -5.949  18.812  0.00  0.00    +0.000 F 
ATOM     45  F   UNL     1      -6.212  -5.156  20.738  0.00  0.00    +0.000 F 
ENDBRANCH   6  42
TORSDOF 5
ENDMDL
MODEL 2
REMARK VINA RESULT:   -11.122      0.733      1.489
REMARK INTER + INTRA:         -14.696
REMARK INTER:                 -13.944
REMARK INTRA:                  -0.752
REMARK UNBOUND:                -0.648
REMARK  Name = 
REMARK  5 active torsions:
REMARK  status: ('A' for Active; 'I' for Inactive)
REMARK    1  A    between atoms: C_1  and  C_2
REMARK    2  A    between atoms: C_8  and  N_9
REMARK    3  A    between atoms: C_10  and  C_12
REMARK    4  A    between atoms: C_17  and  C_18
REMARK    5  A    between atoms: C_23  and  C_24
REMARK                            x       y       z     vdW  Elec       q    Type
REMARK                         _______ _______ _______ _____ _____    ______ ____
ROOT
ATOM      1  C   UNL     1      -9.887  -7.293  17.290  0.00  0.00    +0.000 A 
ATOM      2  C   UNL     1     -10.961  -6.404  17.595  0.00  0.00    +0.000 A 
ATOM      3  C   UNL     1     -10.383  -5.334  18.219  0.00  0.00    +0.000 A 
ATOM      4  N   UNL     1      -9.047  -5.629  18.295  0.00  0.00    +0.000 N 
ATOM      5  N   UNL     1      -8.697  -6.738  17.604  0.00  0.00    +0.000 NA
ATOM      6  C   UNL     1      -8.074  -4.782  18.959  0.00  0.00    +0.000 C 
ATOM      7  C   UNL     1      -8.767  -3.714  19.833  0.00  0.00    +0.000 C 
ATOM      8  C   UNL     1      -9.994  -3.107  19.133  0.00  0.00    +0.000 C 
ATOM      9  N   UNL     1     -10.891  -4.204  18.758  0.00  0.00    +0.000 N 
ATOM     10  H   UNL     1     -12.013  -6.578  17.419  0.00  0.00    +0.000 HD
ATOM     11  H   UNL     1      -7.548  -4.270  18.142  0.00  0.00    +0.000 HD
ATOM     12  H   UNL     1      -8.046  -2.930  20.101  0.00  0.00    +0.000 HD
ATOM     13  H   UNL     1      -9.101  -4.171  20.776  0.00  0.00    +0.000 HD
ATOM     14  H   UNL     1      -9.675  -2.597  18.215  0.00  0.00    +0.000 HD
ATOM     15  H   UNL     1     -11.841  -3.912  18.523  0.00  0.00    +0.000 HD
ENDROOT
BRANCH   8  16
ATOM     16  C   UNL     1     -10.636  -2.097  20.033  0.00  0.00    +0.000 A 
ATOM     17  C   UNL     1     -11.851  -2.041  20.690  0.00  0.00    +0.000 A 
ATOM     18  C   UNL     1     -11.863  -0.822  21.411  0.00  0.00    +0.000 A 
ATOM     19  C   UNL     1     -10.658  -0.214  21.153  0.00  0.00    +0.000 A 
ATOM     20  O   UNL     1      -9.906  -0.979  20.318  0.00  0.00    +0.000 OA
ATOM     21  H   UNL     1     -12.626  -2.794  20.652  0.00  0.00    +0.000 HD
ATOM     22  H   UNL     1     -12.651  -0.437  22.045  0.00  0.00    +0.000 HD
ATOM     23  H   UNL     1     -10.205   0.715  21.471  0.00  0.00    +0.000 HD
ENDBRANCH   8  16
BRANCH   1  25
ATOM     24  N   UNL     1      -8.871  -9.408  16.729  0.00  0.00    +0.000 N 
ATOM     25  C   UNL     1     -10.043  -8.651  16.744  0.00  0.00    +0.000 C 
ATOM     26  O   UNL     1     -11.153  -9.032  16.387  0.00  0.00    +0.000 OA
ATOM     27  H   UNL     1      -8.046  -8.901  17.022  0.00  0.00    +0.000 HD
BRANCH  24  34
ATOM     28  C   UNL     1      -8.573 -11.760  17.409  0.00  0.00    +0.000 A 
ATOM     29  C   UNL     1      -8.496 -13.123  17.048  0.00  0.00    +0.000 A 
ATOM     30  C   UNL     1      -8.586 -13.513  15.719  0.00  0.00    +0.000 A 
ATOM     31  F   UNL     1      -8.510 -14.810  15.398  0.00  0.00    +0.000 F 
ATOM     32  C   UNL     1      -8.756 -12.573  14.722  0.00  0.00    +0.000 A 
ATOM     33  C   UNL     1      -8.840 -11.222  15.063  0.00  0.00    +0.000 A 
ATOM     34  C   UNL     1      -8.755 -10.785  16.399  0.00  0.00    +0.000 A 
ATOM     35  H   UNL     1      -8.364 -13.899  17.798  0.00  0.00    +0.000 HD
ATOM     36  H   UNL     1      -8.829 -12.882  13.685  0.00  0.00    +0.000 HD
ATOM     37  H   UNL     1      -8.993 -10.536  14.239  0.00  0.00    +0.000 HD
BRANCH  28  38
ATOM     38  C   UNL     1      -8.455 -11.432  18.873  0.00  0.00    +0.000 C 
ATOM     39  H   UNL     1      -7.711 -10.642  19.043  0.00  0.00    +0.000 HD
ATOM     40  H   UNL     1      -8.133 -12.311  19.439  0.00  0.00    +0.000 HD
ATOM     41  H   UNL     1      -9.406 -11.059  19.265  0.00  0.00    +0.000 HD
ENDBRANCH  28  38
ENDBRANCH  24  34
ENDBRANCH   1  25
BRANCH   6  42
ATOM     42  C   UNL     1      -7.066  -5.577  19.784  0.00  0.00    +0.000 C 
ATOM     43  F   UNL     1      -7.524  -6.738  20.297  0.00  0.00    +0.000 F 
ATOM     44  F   UNL     1      -5.984  -5.879  19.022  0.00  0.00    +0.000 F 
ATOM     45  F   UNL     1      -6.596  -4.861  20.836  0.00  0.00    +0.000 F 
ENDBRANCH   6  42
TORSDOF 5
ENDMDL
MODEL 3
REMARK VINA RESULT:   -10.515      3.028      3.631
REMARK INTER + INTRA:         -13.929
REMARK INTER:                 -13.431
REMARK INTRA:                  -0.498
REMARK UNBOUND:                -0.648
REMARK  Name = 
REMARK  5 active torsions:
REMARK  status: ('A' for Active; 'I' for Inactive)
REMARK    1  A    between atoms: C_1  and  C_2
REMARK    2  A    between atoms: C_8  and  N_9
REMARK    3  A    between atoms: C_10  and  C_12
REMARK    4  A    between atoms: C_17  and  C_18
REMARK    5  A    between atoms: C_23  and  C_24
REMARK                            x       y       z     vdW  Elec       q    Type
REMARK                         _______ _______ _______ _____ _____    ______ ____
ROOT
ATOM      1  C   UNL     1      -9.955  -6.837  16.885  0.00  0.00    +0.000 A 
ATOM      2  C   UNL     1      -9.704  -6.257  18.164  0.00  0.00    +0.000 A 
ATOM      3  C   UNL     1     -10.445  -5.108  18.196  0.00  0.00    +0.000 A 
ATOM      4  N   UNL     1     -11.054  -5.029  16.970  0.00  0.00    +0.000 N 
ATOM      5  N   UNL     1     -10.898  -6.139  16.215  0.00  0.00    +0.000 NA
ATOM      6  C   UNL     1     -11.880  -3.911  16.556  0.00  0.00    +0.000 C 
ATOM      7  C   UNL     1     -11.713  -2.708  17.510  0.00  0.00    +0.000 C 
ATOM      8  C   UNL     1     -11.659  -3.146  18.982  0.00  0.00    +0.000 C 
ATOM      9  N   UNL     1     -10.587  -4.136  19.123  0.00  0.00    +0.000 N 
ATOM     10  H   UNL     1      -9.023  -6.626  18.918  0.00  0.00    +0.000 HD
ATOM     11  H   UNL     1     -12.911  -4.279  16.645  0.00  0.00    +0.000 HD
ATOM     12  H   UNL     1     -12.528  -1.990  17.348  0.00  0.00    +0.000 HD
ATOM     13  H   UNL     1     -10.777  -2.180  17.274  0.00  0.00    +0.000 HD
ATOM     14  H   UNL     1     -12.607  -3.627  19.255  0.00  0.00    +0.000 HD
ATOM     15  H   UNL     1     -10.291  -4.304  20.085  0.00  0.00    +0.000 HD
ENDROOT
BRANCH   8  16
ATOM     16  C   UNL     1     -11.474  -1.943  19.857  0.00  0.00    +0.000 A 
ATOM     17  C   UNL     1     -11.011  -0.661  19.629  0.00  0.00    +0.000 A 
ATOM     18  C   UNL     1     -11.099   0.023  20.865  0.00  0.00    +0.000 A 
ATOM     19  C   UNL     1     -11.611  -0.879  21.766  0.00  0.00    +0.000 A 
ATOM     20  O   UNL     1     -11.842  -2.076  21.165  0.00  0.00    +0.000 OA
ATOM     21  H   UNL     1     -10.660  -0.274  18.682  0.00  0.00    +0.000 HD
ATOM     22  H   UNL     1     -10.828   1.051  21.072  0.00  0.00    +0.000 HD
ATOM     23  H   UNL     1     -11.859  -0.828  22.817  0.00  0.00    +0.000 HD
ENDBRANCH   8  16
BRANCH   1  25
ATOM     24  N   UNL     1      -9.585  -9.220  16.961  0.00  0.00    +0.000 N 
ATOM     25  C   UNL     1      -9.261  -8.014  16.339  0.00  0.00    +0.000 C 
ATOM     26  O   UNL     1      -8.500  -7.875  15.386  0.00  0.00    +0.000 OA
ATOM     27  H   UNL     1     -10.198  -9.123  17.760  0.00  0.00    +0.000 HD
BRANCH  24  34
ATOM     28  C   UNL     1      -8.666 -11.447  17.487  0.00  0.00    +0.000 A 
ATOM     29  C   UNL     1      -8.310 -12.742  17.052  0.00  0.00    +0.000 A 
ATOM     30  C   UNL     1      -8.455 -13.111  15.721  0.00  0.00    +0.000 A 
ATOM     31  F   UNL     1      -8.112 -14.344  15.330  0.00  0.00    +0.000 F 
ATOM     32  C   UNL     1      -8.954 -12.216  14.796  0.00  0.00    +0.000 A 
ATOM     33  C   UNL     1      -9.316 -10.933  15.211  0.00  0.00    +0.000 A 
ATOM     34  C   UNL     1      -9.185 -10.520  16.551  0.00  0.00    +0.000 A 
ATOM     35  H   UNL     1      -7.915 -13.482  17.744  0.00  0.00    +0.000 HD
ATOM     36  H   UNL     1      -9.069 -12.509  13.758  0.00  0.00    +0.000 HD
ATOM     37  H   UNL     1      -9.718 -10.285  14.444  0.00  0.00    +0.000 HD
BRANCH  28  38
ATOM     38  C   UNL     1      -8.464 -11.136  18.946  0.00  0.00    +0.000 C 
ATOM     39  H   UNL     1      -7.979 -11.973  19.465  0.00  0.00    +0.000 HD
ATOM     40  H   UNL     1      -9.424 -10.959  19.437  0.00  0.00    +0.000 HD
ATOM     41  H   UNL     1      -7.810 -10.267  19.070  0.00  0.00    +0.000 HD
ENDBRANCH  28  38
ENDBRANCH  24  34
ENDBRANCH   1  25
BRANCH   6  42
ATOM     42  C   UNL     1     -11.622  -3.489  15.113  0.00  0.00    +0.000 C 
ATOM     43  F   UNL     1     -12.074  -4.343  14.170  0.00  0.00    +0.000 F 
ATOM     44  F   UNL     1     -12.205  -2.288  14.872  0.00  0.00    +0.000 F 
ATOM     45  F   UNL     1     -10.299  -3.321  14.863  0.00  0.00    +0.000 F 
ENDBRANCH   6  42
TORSDOF 5
ENDMDL
MODEL 4
REMARK VINA RESULT:   -10.381      2.525      3.012
REMARK INTER + INTRA:         -13.760
REMARK INTER:                 -13.266
REMARK INTRA:                  -0.494
REMARK UNBOUND:                -0.648
REMARK  Name = 
REMARK  5 active torsions:
REMARK  status: ('A' for Active; 'I' for Inactive)
REMARK    1  A    between atoms: C_1  and  C_2
REMARK    2  A    between atoms: C_8  and  N_9
REMARK    3  A    between atoms: C_10  and  C_12
REMARK    4  A    between atoms: C_17  and  C_18
REMARK    5  A    between atoms: C_23  and  C_24
REMARK                            x       y       z     vdW  Elec       q    Type
REMARK                         _______ _______ _______ _____ _____    ______ ____
ROOT
ATOM      1  C   UNL     1      -9.861  -7.820  17.898  0.00  0.00    +0.000 A 
ATOM      2  C   UNL     1      -8.968  -7.608  18.990  0.00  0.00    +0.000 A 
ATOM      3  C   UNL     1      -9.089  -6.285  19.311  0.00  0.00    +0.000 A 
ATOM      4  N   UNL     1      -9.983  -5.768  18.409  0.00  0.00    +0.000 N 
ATOM      5  N   UNL     1     -10.583  -6.707  17.642  0.00  0.00    +0.000 NA
ATOM      6  C   UNL     1     -10.342  -4.364  18.350  0.00  0.00    +0.000 C 
ATOM      7  C   UNL     1      -9.364  -3.502  19.178  0.00  0.00    +0.000 C 
ATOM      8  C   UNL     1      -9.004  -4.167  20.516  0.00  0.00    +0.000 C 
ATOM      9  N   UNL     1      -8.479  -5.506  20.231  0.00  0.00    +0.000 N 
ATOM     10  H   UNL     1      -8.297  -8.335  19.426  0.00  0.00    +0.000 HD
ATOM     11  H   UNL     1     -11.333  -4.309  18.821  0.00  0.00    +0.000 HD
ATOM     12  H   UNL     1      -9.798  -2.506  19.344  0.00  0.00    +0.000 HD
ATOM     13  H   UNL     1      -8.436  -3.350  18.609  0.00  0.00    +0.000 HD
ATOM     14  H   UNL     1      -9.911  -4.278  21.125  0.00  0.00    +0.000 HD
ATOM     15  H   UNL     1      -7.974  -5.936  21.006  0.00  0.00    +0.000 HD
ENDROOT
BRANCH   8  16
ATOM     16  C   UNL     1      -8.039  -3.299  21.264  0.00  0.00    +0.000 A 
ATOM     17  C   UNL     1      -8.137  -2.051  21.850  0.00  0.00    +0.000 A 
ATOM     18  C   UNL     1      -6.874  -1.778  22.428  0.00  0.00    +0.000 A 
ATOM     19  C   UNL     1      -6.088  -2.873  22.163  0.00  0.00    +0.000 A 
ATOM     20  O   UNL     1      -6.785  -3.802  21.457  0.00  0.00    +0.000 OA
ATOM     21  H   UNL     1      -9.018  -1.423  21.860  0.00  0.00    +0.000 HD
ATOM     22  H   UNL     1      -6.575  -0.894  22.976  0.00  0.00    +0.000 HD
ATOM     23  H   UNL     1      -5.065  -3.134  22.396  0.00  0.00    +0.000 HD
ENDBRANCH   8  16
BRANCH   1  25
ATOM     24  N   UNL     1      -8.909  -9.956  17.306  0.00  0.00    +0.000 N 
ATOM     25  C   UNL     1      -9.966  -9.064  17.119  0.00  0.00    +0.000 C 
ATOM     26  O   UNL     1     -10.952  -9.251  16.413  0.00  0.00    +0.000 OA
ATOM     27  H   UNL     1      -8.165  -9.601  17.893  0.00  0.00    +0.000 HD
BRANCH  24  34
ATOM     28  C   UNL     1      -8.599 -11.522  15.426  0.00  0.00    +0.000 A 
ATOM     29  C   UNL     1      -8.481 -12.852  14.967  0.00  0.00    +0.000 A 
ATOM     30  C   UNL     1      -8.587 -13.920  15.846  0.00  0.00    +0.000 A 
ATOM     31  F   UNL     1      -8.471 -15.174  15.390  0.00  0.00    +0.000 F 
ATOM     32  C   UNL     1      -8.808 -13.703  17.191  0.00  0.00    +0.000 A 
ATOM     33  C   UNL     1      -8.922 -12.393  17.662  0.00  0.00    +0.000 A 
ATOM     34  C   UNL     1      -8.819 -11.282  16.804  0.00  0.00    +0.000 A 
ATOM     35  H   UNL     1      -8.305 -13.072  13.916  0.00  0.00    +0.000 HD
ATOM     36  H   UNL     1      -8.887 -14.540  17.876  0.00  0.00    +0.000 HD
ATOM     37  H   UNL     1      -9.075 -12.287  18.729  0.00  0.00    +0.000 HD
BRANCH  28  38
ATOM     38  C   UNL     1      -8.481 -10.429  14.397  0.00  0.00    +0.000 C 
ATOM     39  H   UNL     1      -9.242  -9.654  14.555  0.00  0.00    +0.000 HD
ATOM     40  H   UNL     1      -8.628 -10.832  13.391  0.00  0.00    +0.000 HD
ATOM     41  H   UNL     1      -7.508  -9.935  14.468  0.00  0.00    +0.000 HD
ENDBRANCH  28  38
ENDBRANCH  24  34
ENDBRANCH   1  25
BRANCH   6  42
ATOM     42  C   UNL     1     -10.438  -3.840  16.920  0.00  0.00    +0.000 C 
ATOM     43  F   UNL     1      -9.765  -4.555  15.995  0.00  0.00    +0.000 F 
ATOM     44  F   UNL     1     -11.737  -3.808  16.528  0.00  0.00    +0.000 F 
ATOM     45  F   UNL     1      -9.982  -2.567  16.815  0.00  0.00    +0.000 F 
ENDBRANCH   6  42
TORSDOF 5
ENDMDL
MODEL 5
REMARK VINA RESULT:   -10.252      3.459      9.279
REMARK INTER + INTRA:         -13.597
REMARK INTER:                 -12.852
REMARK INTRA:                  -0.745
REMARK UNBOUND:                -0.648
REMARK  Name = 
REMARK  5 active torsions:
REMARK  status: ('A' for Active; 'I' for Inactive)
REMARK    1  A    between atoms: C_1  and  C_2
REMARK    2  A    between atoms: C_8  and  N_9
REMARK    3  A    between atoms: C_10  and  C_12
REMARK    4  A    between atoms: C_17  and  C_18
REMARK    5  A    between atoms: C_23  and  C_24
REMARK                            x       y       z     vdW  Elec       q    Type
REMARK                         _______ _______ _______ _____ _____    ______ ____
ROOT
ATOM      1  C   UNL     1      -8.041  -4.557  20.240  0.00  0.00    +0.000 A 
ATOM      2  C   UNL     1      -7.644  -5.907  20.007  0.00  0.00    +0.000 A 
ATOM      3  C   UNL     1      -8.246  -6.268  18.834  0.00  0.00    +0.000 A 
ATOM      4  N   UNL     1      -8.980  -5.177  18.447  0.00  0.00    +0.000 N 
ATOM      5  N   UNL     1      -8.752  -4.076  19.198  0.00  0.00    +0.000 NA
ATOM      6  C   UNL     1      -9.840  -5.163  17.278  0.00  0.00    +0.000 C 
ATOM      7  C   UNL     1     -10.076  -6.591  16.740  0.00  0.00    +0.000 C 
ATOM      8  C   UNL     1      -8.791  -7.434  16.763  0.00  0.00    +0.000 C 
ATOM      9  N   UNL     1      -8.264  -7.421  18.131  0.00  0.00    +0.000 N 
ATOM     10  H   UNL     1      -7.043  -6.525  20.659  0.00  0.00    +0.000 HD
ATOM     11  H   UNL     1      -9.274  -4.600  16.523  0.00  0.00    +0.000 HD
ATOM     12  H   UNL     1     -10.489  -6.541  15.724  0.00  0.00    +0.000 HD
ATOM     13  H   UNL     1     -10.830  -7.097  17.362  0.00  0.00    +0.000 HD
ATOM     14  H   UNL     1      -8.042  -6.975  16.104  0.00  0.00    +0.000 HD
ATOM     15  H   UNL     1      -7.570  -8.144  18.323  0.00  0.00    +0.000 HD
ENDROOT
BRANCH   8  16
ATOM     16  C   UNL     1      -9.085  -8.811  16.253  0.00  0.00    +0.000 A 
ATOM     17  C   UNL     1      -9.102  -9.376  14.992  0.00  0.00    +0.000 A 
ATOM     18  C   UNL     1      -9.438 -10.741  15.168  0.00  0.00    +0.000 A 
ATOM     19  C   UNL     1      -9.600 -10.923  16.520  0.00  0.00    +0.000 A 
ATOM     20  O   UNL     1      -9.388  -9.758  17.188  0.00  0.00    +0.000 OA
ATOM     21  H   UNL     1      -8.892  -8.862  14.064  0.00  0.00    +0.000 HD
ATOM     22  H   UNL     1      -9.542 -11.499  14.403  0.00  0.00    +0.000 HD
ATOM     23  H   UNL     1      -9.851 -11.776  17.135  0.00  0.00    +0.000 HD
ENDBRANCH   8  16
BRANCH   1  25
ATOM     24  N   UNL     1      -8.852  -3.615  22.308  0.00  0.00    +0.000 N 
ATOM     25  C   UNL     1      -7.756  -3.790  21.464  0.00  0.00    +0.000 C 
ATOM     26  O   UNL     1      -6.611  -3.402  21.677  0.00  0.00    +0.000 OA
ATOM     27  H   UNL     1      -9.724  -3.969  21.935  0.00  0.00    +0.000 HD
BRANCH  24  34
ATOM     28  C   UNL     1      -9.325  -1.742  23.841  0.00  0.00    +0.000 A 
ATOM     29  C   UNL     1      -9.327  -1.225  25.155  0.00  0.00    +0.000 A 
ATOM     30  C   UNL     1      -8.851  -1.981  26.217  0.00  0.00    +0.000 A 
ATOM     31  F   UNL     1      -8.863  -1.472  27.456  0.00  0.00    +0.000 F 
ATOM     32  C   UNL     1      -8.367  -3.257  26.009  0.00  0.00    +0.000 A 
ATOM     33  C   UNL     1      -8.363  -3.784  24.716  0.00  0.00    +0.000 A 
ATOM     34  C   UNL     1      -8.838  -3.051  23.612  0.00  0.00    +0.000 A 
ATOM     35  H   UNL     1      -9.700  -0.226  25.368  0.00  0.00    +0.000 HD
ATOM     36  H   UNL     1      -7.999  -3.846  26.842  0.00  0.00    +0.000 HD
ATOM     37  H   UNL     1      -7.989  -4.796  24.620  0.00  0.00    +0.000 HD
BRANCH  28  38
ATOM     38  C   UNL     1      -9.851  -0.845  22.752  0.00  0.00    +0.000 C 
ATOM     39  H   UNL     1      -9.109  -0.715  21.954  0.00  0.00    +0.000 HD
ATOM     40  H   UNL     1     -10.081   0.148  23.150  0.00  0.00    +0.000 HD
ATOM     41  H   UNL     1     -10.740  -1.280  22.287  0.00  0.00    +0.000 HD
ENDBRANCH  28  38
ENDBRANCH  24  34
ENDBRANCH   1  25
BRANCH   6  42
ATOM     42  C   UNL     1     -11.169  -4.460  17.533  0.00  0.00    +0.000 C 
ATOM     43  F   UNL     1     -11.585  -4.454  18.817  0.00  0.00    +0.000 F 
ATOM     44  F   UNL     1     -11.088  -3.164  17.137  0.00  0.00    +0.000 F 
ATOM     45  F   UNL     1     -12.180  -5.010  16.814  0.00  0.00    +0.000 F 
ENDBRANCH   6  42
TORSDOF 5
ENDMDL
MODEL 6
REMARK VINA RESULT:   -10.120      2.159      3.358
REMARK INTER + INTRA:         -13.431
REMARK INTER:                 -12.668
REMARK INTRA:                  -0.763
REMARK UNBOUND:                -0.648
REMARK  Name = 
REMARK  5 active torsions:
REMARK  status: ('A' for Active; 'I' for Inactive)
REMARK    1  A    between atoms: C_1  and  C_2
REMARK    2  A    between atoms: C_8  and  N_9
REMARK    3  A    between atoms: C_10  and  C_12
REMARK    4  A    between atoms: C_17  and  C_18
REMARK    5  A    between atoms: C_23  and  C_24
REMARK                            x       y       z     vdW  Elec       q    Type
REMARK                         _______ _______ _______ _____ _____    ______ ____
ROOT
ATOM      1  C   UNL     1      -8.592  -5.141  18.737  0.00  0.00    +0.000 A 
ATOM      2  C   UNL     1      -9.844  -4.481  18.551  0.00  0.00    +0.000 A 
ATOM      3  C   UNL     1      -9.826  -3.415  19.407  0.00  0.00    +0.000 A 
ATOM      4  N   UNL     1      -8.631  -3.497  20.072  0.00  0.00    +0.000 N 
ATOM      5  N   UNL     1      -7.799  -4.442  19.578  0.00  0.00    +0.000 NA
ATOM      6  C   UNL     1      -8.240  -2.591  21.135  0.00  0.00    +0.000 C 
ATOM      7  C   UNL     1      -9.445  -1.763  21.634  0.00  0.00    +0.000 C 
ATOM      8  C   UNL     1     -10.332  -1.283  20.474  0.00  0.00    +0.000 C 
ATOM      9  N   UNL     1     -10.733  -2.456  19.694  0.00  0.00    +0.000 N 
ATOM     10  H   UNL     1     -10.653  -4.801  17.910  0.00  0.00    +0.000 HD
ATOM     11  H   UNL     1      -7.522  -1.905  20.666  0.00  0.00    +0.000 HD
ATOM     12  H   UNL     1      -9.088  -0.911  22.229  0.00  0.00    +0.000 HD
ATOM     13  H   UNL     1     -10.061  -2.379  22.306  0.00  0.00    +0.000 HD
ATOM     14  H   UNL     1      -9.750  -0.620  19.821  0.00  0.00    +0.000 HD
ATOM     15  H   UNL     1     -11.520  -2.296  19.063  0.00  0.00    +0.000 HD
ENDROOT
BRANCH   8  16
ATOM     16  C   UNL     1     -11.492  -0.506  21.018  0.00  0.00    +0.000 A 
ATOM     17  C   UNL     1     -12.324  -0.675  22.108  0.00  0.00    +0.000 A 
ATOM     18  C   UNL     1     -13.225   0.417  22.099  0.00  0.00    +0.000 A 
ATOM     19  C   UNL     1     -12.886   1.183  21.010  0.00  0.00    +0.000 A 
ATOM     20  O   UNL     1     -11.835   0.632  20.347  0.00  0.00    +0.000 OA
ATOM     21  H   UNL     1     -12.277  -1.487  22.822  0.00  0.00    +0.000 HD
ATOM     22  H   UNL     1     -14.021   0.623  22.803  0.00  0.00    +0.000 HD
ATOM     23  H   UNL     1     -13.272   2.102  20.592  0.00  0.00    +0.000 HD
ENDBRANCH   8  16
BRANCH   1  25
ATOM     24  N   UNL     1      -9.211  -7.407  18.187  0.00  0.00    +0.000 N 
ATOM     25  C   UNL     1      -8.217  -6.429  18.134  0.00  0.00    +0.000 C 
ATOM     26  O   UNL     1      -7.115  -6.549  17.607  0.00  0.00    +0.000 OA
ATOM     27  H   UNL     1     -10.036  -7.132  18.704  0.00  0.00    +0.000 HD
BRANCH  24  34
ATOM     28  C   UNL     1      -8.851  -9.844  18.296  0.00  0.00    +0.000 A 
ATOM     29  C   UNL     1      -8.866 -11.099  17.649  0.00  0.00    +0.000 A 
ATOM     30  C   UNL     1      -9.191 -11.202  16.304  0.00  0.00    +0.000 A 
ATOM     31  F   UNL     1      -9.200 -12.402  15.710  0.00  0.00    +0.000 F 
ATOM     32  C   UNL     1      -9.510 -10.077  15.571  0.00  0.00    +0.000 A 
ATOM     33  C   UNL     1      -9.506  -8.829  16.197  0.00  0.00    +0.000 A 
ATOM     34  C   UNL     1      -9.183  -8.681  17.560  0.00  0.00    +0.000 A 
ATOM     35  H   UNL     1      -8.623 -12.013  18.186  0.00  0.00    +0.000 HD
ATOM     36  H   UNL     1      -9.767 -10.162  14.520  0.00  0.00    +0.000 HD
ATOM     37  H   UNL     1      -9.783  -7.988  15.575  0.00  0.00    +0.000 HD
BRANCH  28  38
ATOM     38  C   UNL     1      -8.476  -9.830  19.754  0.00  0.00    +0.000 C 
ATOM     39  H   UNL     1      -7.819  -8.982  19.985  0.00  0.00    +0.000 HD
ATOM     40  H   UNL     1      -7.937 -10.743  20.021  0.00  0.00    +0.000 HD
ATOM     41  H   UNL     1      -9.365  -9.719  20.381  0.00  0.00    +0.000 HD
ENDBRANCH  28  38
ENDBRANCH  24  34
ENDBRANCH   1  25
BRANCH   6  42
ATOM     42  C   UNL     1      -7.562  -3.305  22.300  0.00  0.00    +0.000 C 
ATOM     43  F   UNL     1      -6.311  -3.749  22.059  0.00  0.00    +0.000 F 
ATOM     44  F   UNL     1      -7.488  -2.474  23.370  0.00  0.00    +0.000 F 
ATOM     45  F   UNL     1      -8.271  -4.386  22.713  0.00  0.00    +0.000 F 
ENDBRANCH   6  42
TORSDOF 5
ENDMDL
MODEL 7
REMARK VINA RESULT:    -9.893      4.806      5.695
REMARK INTER + INTRA:         -13.144
REMARK INTER:                 -12.817
REMARK INTRA:                  -0.327
REMARK UNBOUND:                -0.648
REMARK  Name = 
REMARK  5 active torsions:
REMARK  status: ('A' for Active; 'I' for Inactive)
REMARK    1  A    between atoms: C_1  and  C_2
REMARK    2  A    between atoms: C_8  and  N_9
REMARK    3  A    between atoms: C_10  and  C_12
REMARK    4  A    between atoms: C_17  and  C_18
REMARK    5  A    between atoms: C_23  and  C_24
REMARK                            x       y       z     vdW  Elec       q    Type
REMARK                         _______ _______ _______ _____ _____    ______ ____
ROOT
ATOM      1  C   UNL     1      -9.311  -6.496  16.465  0.00  0.00    +0.000 A 
ATOM      2  C   UNL     1      -9.247  -6.451  15.041  0.00  0.00    +0.000 A 
ATOM      3  C   UNL     1      -9.805  -5.254  14.687  0.00  0.00    +0.000 A 
ATOM      4  N   UNL     1     -10.201  -4.671  15.863  0.00  0.00    +0.000 N 
ATOM      5  N   UNL     1      -9.776  -5.330  16.965  0.00  0.00    +0.000 NA
ATOM      6  C   UNL     1     -10.915  -3.410  15.933  0.00  0.00    +0.000 C 
ATOM      7  C   UNL     1     -11.451  -2.993  14.546  0.00  0.00    +0.000 C 
ATOM      8  C   UNL     1     -10.427  -3.260  13.430  0.00  0.00    +0.000 C 
ATOM      9  N   UNL     1     -10.047  -4.674  13.491  0.00  0.00    +0.000 N 
ATOM     10  H   UNL     1      -8.885  -7.231  14.385  0.00  0.00    +0.000 HD
ATOM     11  H   UNL     1     -10.156  -2.678  16.242  0.00  0.00    +0.000 HD
ATOM     12  H   UNL     1     -11.739  -1.934  14.563  0.00  0.00    +0.000 HD
ATOM     13  H   UNL     1     -12.363  -3.564  14.318  0.00  0.00    +0.000 HD
ATOM     14  H   UNL     1      -9.528  -2.656  13.609  0.00  0.00    +0.000 HD
ATOM     15  H   UNL     1      -9.578  -5.022  12.654  0.00  0.00    +0.000 HD
ENDROOT
BRANCH   8  16
ATOM     16  C   UNL     1     -11.008  -2.858  12.109  0.00  0.00    +0.000 A 
ATOM     17  C   UNL     1     -12.236  -3.058  11.508  0.00  0.00    +0.000 A 
ATOM     18  C   UNL     1     -12.180  -2.407  10.252  0.00  0.00    +0.000 A 
ATOM     19  C   UNL     1     -10.927  -1.850  10.167  0.00  0.00    +0.000 A 
ATOM     20  O   UNL     1     -10.207  -2.118  11.288  0.00  0.00    +0.000 OA
ATOM     21  H   UNL     1     -13.069  -3.603  11.933  0.00  0.00    +0.000 HD
ATOM     22  H   UNL     1     -12.959  -2.347   9.503  0.00  0.00    +0.000 HD
ATOM     23  H   UNL     1     -10.418  -1.263   9.415  0.00  0.00    +0.000 HD
ENDBRANCH   8  16
BRANCH   1  25
ATOM     24  N   UNL     1      -9.324  -8.892  16.743  0.00  0.00    +0.000 N 
ATOM     25  C   UNL     1      -8.960  -7.662  17.291  0.00  0.00    +0.000 C 
ATOM     26  O   UNL     1      -8.359  -7.492  18.348  0.00  0.00    +0.000 OA
ATOM     27  H   UNL     1      -9.854  -8.823  15.884  0.00  0.00    +0.000 HD
BRANCH  24  34
ATOM     28  C   UNL     1      -8.858 -11.285  16.370  0.00  0.00    +0.000 A 
ATOM     29  C   UNL     1      -8.485 -12.541  16.897  0.00  0.00    +0.000 A 
ATOM     30  C   UNL     1      -8.250 -12.702  18.255  0.00  0.00    +0.000 A 
ATOM     31  F   UNL     1      -7.897 -13.901  18.734  0.00  0.00    +0.000 F 
ATOM     32  C   UNL     1      -8.375 -11.633  19.120  0.00  0.00    +0.000 A 
ATOM     33  C   UNL     1      -8.738 -10.383  18.615  0.00  0.00    +0.000 A 
ATOM     34  C   UNL     1      -8.983 -10.178  17.243  0.00  0.00    +0.000 A 
ATOM     35  H   UNL     1      -8.372 -13.411  16.255  0.00  0.00    +0.000 HD
ATOM     36  H   UNL     1      -8.188 -11.762  20.181  0.00  0.00    +0.000 HD
ATOM     37  H   UNL     1      -8.800  -9.581  19.339  0.00  0.00    +0.000 HD
BRANCH  28  38
ATOM     38  C   UNL     1      -9.101 -11.210  14.887  0.00  0.00    +0.000 C 
ATOM     39  H   UNL     1      -8.570 -12.012  14.358  0.00  0.00    +0.000 HD
ATOM     40  H   UNL     1      -8.739 -10.259  14.486  0.00  0.00    +0.000 HD
ATOM     41  H   UNL     1     -10.164 -11.335  14.662  0.00  0.00    +0.000 HD
ENDBRANCH  28  38
ENDBRANCH  24  34
ENDBRANCH   1  25
BRANCH   6  42
ATOM     42  C   UNL     1     -12.043  -3.427  16.960  0.00  0.00    +0.000 C 
ATOM     43  F   UNL     1     -11.673  -3.161  18.230  0.00  0.00    +0.000 F 
ATOM     44  F   UNL     1     -12.986  -2.512  16.622  0.00  0.00    +0.000 F 
ATOM     45  F   UNL     1     -12.677  -4.625  16.996  0.00  0.00    +0.000 F 
ENDBRANCH   6  42
TORSDOF 5
ENDMDL
MODEL 8
REMARK VINA RESULT:    -9.888      2.842      3.755
REMARK INTER + INTRA:         -13.138
REMARK INTER:                 -12.494
REMARK INTRA:                  -0.644
REMARK UNBOUND:                -0.648
REMARK  Name = 
REMARK  5 active torsions:
REMARK  status: ('A' for Active; 'I' for Inactive)
REMARK    1  A    between atoms: C_1  and  C_2
REMARK    2  A    between atoms: C_8  and  N_9
REMARK    3  A    between atoms: C_10  and  C_12
REMARK    4  A    between atoms: C_17  and  C_18
REMARK    5  A    between atoms: C_23  and  C_24
REMARK                            x       y       z     vdW  Elec       q    Type
REMARK                         _______ _______ _______ _____ _____    ______ ____
ROOT
ATOM      1  C   UNL     1      -8.947  -5.756  18.506  0.00  0.00    +0.000 A 
ATOM      2  C   UNL     1      -8.296  -5.404  19.725  0.00  0.00    +0.000 A 
ATOM      3  C   UNL     1      -8.870  -4.227  20.119  0.00  0.00    +0.000 A 
ATOM      4  N   UNL     1      -9.776  -3.913  19.140  0.00  0.00    +0.000 N 
ATOM      5  N   UNL     1      -9.954  -4.898  18.231  0.00  0.00    +0.000 NA
ATOM      6  C   UNL     1     -10.557  -2.691  19.131  0.00  0.00    +0.000 C 
ATOM      7  C   UNL     1     -10.005  -1.668  20.149  0.00  0.00    +0.000 C 
ATOM      8  C   UNL     1      -9.601  -2.336  21.473  0.00  0.00    +0.000 C 
ATOM      9  N   UNL     1      -8.647  -3.406  21.169  0.00  0.00    +0.000 N 
ATOM     10  H   UNL     1      -7.480  -5.932  20.198  0.00  0.00    +0.000 HD
ATOM     11  H   UNL     1     -11.559  -2.998  19.461  0.00  0.00    +0.000 HD
ATOM     12  H   UNL     1     -10.750  -0.880  20.323  0.00  0.00    +0.000 HD
ATOM     13  H   UNL     1      -9.117  -1.174  19.728  0.00  0.00    +0.000 HD
ATOM     14  H   UNL     1     -10.487  -2.789  21.938  0.00  0.00    +0.000 HD
ATOM     15  H   UNL     1      -8.120  -3.745  21.975  0.00  0.00    +0.000 HD
ENDROOT
BRANCH   8  16
ATOM     16  C   UNL     1      -9.055  -1.302  22.410  0.00  0.00    +0.000 A 
ATOM     17  C   UNL     1      -7.860  -1.170  23.091  0.00  0.00    +0.000 A 
ATOM     18  C   UNL     1      -7.939   0.049  23.807  0.00  0.00    +0.000 A 
ATOM     19  C   UNL     1      -9.171   0.584  23.517  0.00  0.00    +0.000 A 
ATOM     20  O   UNL     1      -9.857  -0.228  22.670  0.00  0.00    +0.000 OA
ATOM     21  H   UNL     1      -7.035  -1.869  23.065  0.00  0.00    +0.000 HD
ATOM     22  H   UNL     1      -7.187   0.486  24.452  0.00  0.00    +0.000 HD
ATOM     23  H   UNL     1      -9.683   1.488  23.816  0.00  0.00    +0.000 HD
ENDBRANCH   8  16
BRANCH   1  25
ATOM     24  N   UNL     1      -9.258  -8.061  17.866  0.00  0.00    +0.000 N 
ATOM     25  C   UNL     1      -8.560  -6.876  17.633  0.00  0.00    +0.000 C 
ATOM     26  O   UNL     1      -7.712  -6.696  16.764  0.00  0.00    +0.000 OA
ATOM     27  H   UNL     1      -9.886  -8.024  18.659  0.00  0.00    +0.000 HD
BRANCH  24  34
ATOM     28  C   UNL     1      -8.786 -10.474  17.663  0.00  0.00    +0.000 A 
ATOM     29  C   UNL     1      -8.772 -11.640  16.868  0.00  0.00    +0.000 A 
ATOM     30  C   UNL     1      -9.147 -11.596  15.533  0.00  0.00    +0.000 A 
ATOM     31  F   UNL     1      -9.127 -12.714  14.797  0.00  0.00    +0.000 F 
ATOM     32  C   UNL     1      -9.545 -10.408  14.955  0.00  0.00    +0.000 A 
ATOM     33  C   UNL     1      -9.570  -9.245  15.729  0.00  0.00    +0.000 A 
ATOM     34  C   UNL     1      -9.198  -9.248  17.087  0.00  0.00    +0.000 A 
ATOM     35  H   UNL     1      -8.467 -12.600  17.280  0.00  0.00    +0.000 HD
ATOM     36  H   UNL     1      -9.841 -10.377  13.912  0.00  0.00    +0.000 HD
ATOM     37  H   UNL     1      -9.910  -8.350  15.225  0.00  0.00    +0.000 HD
BRANCH  28  38
ATOM     38  C   UNL     1      -8.352 -10.617  19.097  0.00  0.00    +0.000 C 
ATOM     39  H   UNL     1      -8.381 -11.668  19.416  0.00  0.00    +0.000 HD
ATOM     40  H   UNL     1      -9.020 -10.057  19.759  0.00  0.00    +0.000 HD
ATOM     41  H   UNL     1      -7.321 -10.278  19.226  0.00  0.00    +0.000 HD
ENDBRANCH  28  38
ENDBRANCH  24  34
ENDBRANCH   1  25
BRANCH   6  42
ATOM     42  C   UNL     1     -10.656  -2.065  17.744  0.00  0.00    +0.000 C 
ATOM     43  F   UNL     1     -11.561  -2.629  16.917  0.00  0.00    +0.000 F 
ATOM     44  F   UNL     1     -10.984  -0.752  17.853  0.00  0.00    +0.000 F 
ATOM     45  F   UNL     1      -9.471  -2.102  17.085  0.00  0.00    +0.000 F 
ENDBRANCH   6  42
TORSDOF 5
ENDMDL
MODEL 9
REMARK VINA RESULT:    -9.701      3.863      4.355
REMARK INTER + INTRA:         -12.902
REMARK INTER:                 -12.153
REMARK INTRA:                  -0.748
REMARK UNBOUND:                -0.648
REMARK  Name = 
REMARK  5 active torsions:
REMARK  status: ('A' for Active; 'I' for Inactive)
REMARK    1  A    between atoms: C_1  and  C_2
REMARK    2  A    between atoms: C_8  and  N_9
REMARK    3  A    between atoms: C_10  and  C_12
REMARK    4  A    between atoms: C_17  and  C_18
REMARK    5  A    between atoms: C_23  and  C_24
REMARK                            x       y       z     vdW  Elec       q    Type
REMARK                         _______ _______ _______ _____ _____    ______ ____
ROOT
ATOM      1  C   UNL     1     -10.786  -6.296  16.811  0.00  0.00    +0.000 A 
ATOM      2  C   UNL     1     -10.045  -5.447  17.686  0.00  0.00    +0.000 A 
ATOM      3  C   UNL     1     -10.218  -4.181  17.201  0.00  0.00    +0.000 A 
ATOM      4  N   UNL     1     -10.991  -4.320  16.078  0.00  0.00    +0.000 N 
ATOM      5  N   UNL     1     -11.477  -5.570  15.905  0.00  0.00    +0.000 NA
ATOM      6  C   UNL     1     -11.351  -3.214  15.210  0.00  0.00    +0.000 C 
ATOM      7  C   UNL     1     -10.497  -1.964  15.515  0.00  0.00    +0.000 C 
ATOM      8  C   UNL     1     -10.309  -1.751  17.026  0.00  0.00    +0.000 C 
ATOM      9  N   UNL     1      -9.740  -2.979  17.590  0.00  0.00    +0.000 N 
ATOM     10  H   UNL     1      -9.431  -5.758  18.520  0.00  0.00    +0.000 HD
ATOM     11  H   UNL     1     -12.395  -2.989  15.465  0.00  0.00    +0.000 HD
ATOM     12  H   UNL     1     -10.957  -1.080  15.053  0.00  0.00    +0.000 HD
ATOM     13  H   UNL     1      -9.504  -2.077  15.058  0.00  0.00    +0.000 HD
ATOM     14  H   UNL     1     -11.287  -1.580  17.495  0.00  0.00    +0.000 HD
ATOM     15  H   UNL     1      -9.337  -2.869  18.521  0.00  0.00    +0.000 HD
ENDROOT
BRANCH   8  16
ATOM     16  C   UNL     1      -9.458  -0.541  17.260  0.00  0.00    +0.000 A 
ATOM     17  C   UNL     1      -9.349   0.360  18.302  0.00  0.00    +0.000 A 
ATOM     18  C   UNL     1      -8.340   1.282  17.933  0.00  0.00    +0.000 A 
ATOM     19  C   UNL     1      -7.895   0.885  16.694  0.00  0.00    +0.000 A 
ATOM     20  O   UNL     1      -8.567  -0.219  16.276  0.00  0.00    +0.000 OA
ATOM     21  H   UNL     1      -9.927   0.344  19.216  0.00  0.00    +0.000 HD
ATOM     22  H   UNL     1      -7.977   2.128  18.502  0.00  0.00    +0.000 HD
ATOM     23  H   UNL     1      -7.145   1.262  16.013  0.00  0.00    +0.000 HD
ENDBRANCH   8  16
BRANCH   1  25
ATOM     24  N   UNL     1      -9.506  -8.341  16.813  0.00  0.00    +0.000 N 
ATOM     25  C   UNL     1     -10.777  -7.767  16.850  0.00  0.00    +0.000 C 
ATOM     26  O   UNL     1     -11.840  -8.373  16.949  0.00  0.00    +0.000 OA
ATOM     27  H   UNL     1      -8.754  -7.676  16.684  0.00  0.00    +0.000 HD
BRANCH  24  34
ATOM     28  C   UNL     1      -9.186 -10.602  15.881  0.00  0.00    +0.000 A 
ATOM     29  C   UNL     1      -8.834 -11.954  16.082  0.00  0.00    +0.000 A 
ATOM     30  C   UNL     1      -8.504 -12.423  17.346  0.00  0.00    +0.000 A 
ATOM     31  F   UNL     1      -8.173 -13.709  17.515  0.00  0.00    +0.000 F 
ATOM     32  C   UNL     1      -8.511 -11.573  18.433  0.00  0.00    +0.000 A 
ATOM     33  C   UNL     1      -8.851 -10.231  18.250  0.00  0.00    +0.000 A 
ATOM     34  C   UNL     1      -9.191  -9.715  16.985  0.00  0.00    +0.000 A 
ATOM     35  H   UNL     1      -8.813 -12.661  15.256  0.00  0.00    +0.000 HD
ATOM     36  H   UNL     1      -8.249 -11.942  19.419  0.00  0.00    +0.000 HD
ATOM     37  H   UNL     1      -8.819  -9.611  19.137  0.00  0.00    +0.000 HD
BRANCH  28  38
ATOM     38  C   UNL     1      -9.538 -10.188  14.477  0.00  0.00    +0.000 C 
ATOM     39  H   UNL     1     -10.424 -10.726  14.117  0.00  0.00    +0.000 HD
ATOM     40  H   UNL     1      -8.717 -10.415  13.792  0.00  0.00    +0.000 HD
ATOM     41  H   UNL     1      -9.779  -9.122  14.437  0.00  0.00    +0.000 HD
ENDBRANCH  28  38
ENDBRANCH  24  34
ENDBRANCH   1  25
BRANCH   6  42
ATOM     42  C   UNL     1     -11.263  -3.574  13.730  0.00  0.00    +0.000 C 
ATOM     43  F   UNL     1     -10.183  -4.299  13.373  0.00  0.00    +0.000 F 
ATOM     44  F   UNL     1     -12.358  -4.288  13.365  0.00  0.00    +0.000 F 
ATOM     45  F   UNL     1     -11.253  -2.471  12.940  0.00  0.00    +0.000 F 
ENDBRANCH   6  42
TORSDOF 5
ENDMDL
