REMARK  Name = 
REMARK  4 active torsions:
REMARK  status: ('A' for Active; 'I' for Inactive)
REMARK    1  A    between atoms: C_1  and  S_2
REMARK    2  A    between atoms: S_2  and  C_3
REMARK    3  A    between atoms: C_6  and  C_7
REMARK    4  A    between atoms: C_22  and  C_23
REMARK                            x       y       z     vdW  Elec       q    Type
REMARK                         _______ _______ _______ _____ _____    ______ ____
ROOT
ATOM      1  C   UNL     1       0.196   0.454   1.627  0.00  0.00    +0.000 C 
ATOM      2  O   UNL     1       1.312   1.028   2.362  0.00  0.00    +0.000 OA
ATOM      3  C   UNL     1       2.221   1.609   1.496  0.00  0.00    +0.000 A 
ATOM      4  C   UNL     1       3.545   1.541   1.900  0.00  0.00    +0.000 A 
ATOM      5  C   UNL     1       4.519   1.508   0.913  0.00  0.00    +0.000 A 
ATOM      6  C   UNL     1       4.150   1.593  -0.436  0.00  0.00    +0.000 A 
ATOM      7  C   UNL     1       2.828   1.881  -0.806  0.00  0.00    +0.000 A 
ATOM      8  C   UNL     1       1.858   1.961   0.185  0.00  0.00    +0.000 A 
ATOM      9  C   UNL     1       0.392   2.173  -0.082  0.00  0.00    +0.000 C 
ATOM     10  N   UNL     1      -0.025   2.738  -1.171  0.00  0.00    +0.000 NA
ATOM     11  C   UNL     1      -1.397   2.861  -1.285  0.00  0.00    +0.000 A 
ATOM     12  N   UNL     1      -2.075   3.467  -2.243  0.00  0.00    +0.000 N 
ATOM     13  C   UNL     1      -3.396   3.397  -1.899  0.00  0.00    +0.000 A 
ATOM     14  N   UNL     1      -3.587   2.760  -0.795  0.00  0.00    +0.000 NA
ATOM     15  N   UNL     1      -2.312   2.372  -0.443  0.00  0.00    +0.000 N 
ATOM     16  C   UNL     1      -2.032   1.663   0.789  0.00  0.00    +0.000 C 
ATOM     17  C   UNL     1      -0.513   1.699   1.062  0.00  0.00    +0.000 C 
ATOM     18  H   UNL     1      -0.423  -0.022   2.393  0.00  0.00    +0.000 HD
ATOM     19  H   UNL     1       3.806   1.384   2.943  0.00  0.00    +0.000 HD
ATOM     20  H   UNL     1       5.557   1.331   1.191  0.00  0.00    +0.000 HD
ATOM     21  H   UNL     1       4.905   1.413  -1.199  0.00  0.00    +0.000 HD
ATOM     22  H   UNL     1       2.569   1.940  -1.858  0.00  0.00    +0.000 HD
ATOM     23  H   UNL     1      -1.660   3.936  -3.045  0.00  0.00    +0.000 HD
ATOM     24  H   UNL     1      -4.142   3.856  -2.531  0.00  0.00    +0.000 HD
ATOM     25  H   UNL     1      -2.504   2.275   1.572  0.00  0.00    +0.000 HD
ATOM     26  H   UNL     1      -0.412   2.511   1.805  0.00  0.00    +0.000 HD
ENDROOT
BRANCH  16  27
ATOM     27  C   UNL     1      -2.779   0.325   0.838  0.00  0.00    +0.000 A 
ATOM     28  C   UNL     1      -3.128  -0.394  -0.316  0.00  0.00    +0.000 A 
ATOM     29  C   UNL     1      -3.703  -1.660  -0.226  0.00  0.00    +0.000 A 
ATOM     30  C   UNL     1      -3.997  -2.179   1.023  0.00  0.00    +0.000 A 
ATOM     31  N   UNL     1      -3.740  -1.449   2.121  0.00  0.00    +0.000 N 
ATOM     32  C   UNL     1      -3.154  -0.237   2.069  0.00  0.00    +0.000 A 
ATOM     33  H   UNL     1      -2.924  -0.005  -1.314  0.00  0.00    +0.000 HD
ATOM     34  H   UNL     1      -3.908  -2.238  -1.126  0.00  0.00    +0.000 HD
ATOM     35  H   UNL     1      -4.438  -3.160   1.171  0.00  0.00    +0.000 HD
ATOM     36  H   UNL     1      -3.998  -1.845   3.030  0.00  0.00    +0.000 HD
ATOM     37  H   UNL     1      -2.991   0.243   3.030  0.00  0.00    +0.000 HD
ENDBRANCH  16  27
BRANCH   1  41
ATOM     38  C   UNL     1       1.364  -2.732  -1.209  0.00  0.00    +0.000 A 
ATOM     39  C   UNL     1       2.072  -2.529  -0.025  0.00  0.00    +0.000 A 
ATOM     40  C   UNL     1       1.685  -1.528   0.893  0.00  0.00    +0.000 A 
ATOM     41  C   UNL     1       0.608  -0.664   0.630  0.00  0.00    +0.000 A 
ATOM     42  C   UNL     1      -0.010  -0.823  -0.617  0.00  0.00    +0.000 A 
ATOM     43  C   UNL     1       0.327  -1.852  -1.500  0.00  0.00    +0.000 A 
ATOM     44  H   UNL     1       2.942  -3.136   0.215  0.00  0.00    +0.000 HD
ATOM     45  H   UNL     1       2.288  -1.404   1.793  0.00  0.00    +0.000 HD
ATOM     46  H   UNL     1      -0.742  -0.127  -0.993  0.00  0.00    +0.000 HD
ATOM     47  H   UNL     1      -0.222  -1.948  -2.437  0.00  0.00    +0.000 HD
BRANCH  38  48
ATOM     48  S   UNL     1       1.633  -4.013  -2.419  0.00  0.00    +0.000 S 
BRANCH  48  49
ATOM     49  C   UNL     1       3.128  -4.855  -1.847  0.00  0.00    +0.000 C 
ATOM     50  H   UNL     1       3.360  -5.663  -2.546  0.00  0.00    +0.000 HD
ATOM     51  H   UNL     1       2.973  -5.293  -0.858  0.00  0.00    +0.000 HD
ATOM     52  H   UNL     1       3.973  -4.162  -1.828  0.00  0.00    +0.000 HD
ENDBRANCH  48  49
ENDBRANCH  38  48
ENDBRANCH   1  41
TORSDOF 4
