REMARK  Name = 
REMARK  6 active torsions:
REMARK  status: ('A' for Active; 'I' for Inactive)
REMARK    1  A    between atoms: C_1  and  C_2
REMARK    2  A    between atoms: C_5  and  C_6
REMARK    3  A    between atoms: C_6  and  C_7
REMARK    4  A    between atoms: C_7  and  C_8
REMARK    5  A    between atoms: N_11  and  C_12
REMARK    6  A    between atoms: C_12  and  C_13
REMARK                            x       y       z     vdW  Elec       q    Type
REMARK                         _______ _______ _______ _____ _____    ______ ____
ROOT
ATOM      1  C   UNL     1      -1.788   0.035   1.704  0.00  0.00    +0.000 C 
ATOM      2  C   UNL     1      -2.241  -1.076   0.747  0.00  0.00    +0.000 C 
ATOM      3  C   UNL     1      -1.624  -0.934  -0.638  0.00  0.00    +0.000 C 
ATOM      4  N   UNL     1      -1.867   0.449  -1.208  0.00  0.00    +0.000 N 
ATOM      5  C   UNL     1      -1.644   1.611  -0.275  0.00  0.00    +0.000 C 
ATOM      6  C   UNL     1      -2.252   1.362   1.096  0.00  0.00    +0.000 C 
ATOM      7  H   UNL     1      -2.305  -0.107   2.661  0.00  0.00    +0.000 HD
ATOM      8  H   UNL     1      -3.336  -1.050   0.657  0.00  0.00    +0.000 HD
ATOM      9  H   UNL     1      -1.991  -2.060   1.161  0.00  0.00    +0.000 HD
ATOM     10  H   UNL     1      -2.085  -1.654  -1.322  0.00  0.00    +0.000 HD
ATOM     11  H   UNL     1      -0.544  -1.107  -0.620  0.00  0.00    +0.000 HD
ATOM     12  H   UNL     1      -2.852   0.464  -1.517  0.00  0.00    +0.000 HD
ATOM     13  H   UNL     1      -2.109   2.486  -0.742  0.00  0.00    +0.000 HD
ATOM     14  H   UNL     1      -0.565   1.784  -0.206  0.00  0.00    +0.000 HD
ATOM     15  H   UNL     1      -3.347   1.355   1.010  0.00  0.00    +0.000 HD
ATOM     16  H   UNL     1      -2.015   2.199   1.762  0.00  0.00    +0.000 HD
ENDROOT
BRANCH   1  17
ATOM     17  C   UNL     1      -0.264  -0.041   1.970  0.00  0.00    +0.000 C 
ATOM     18  H   UNL     1      -0.027  -1.043   2.353  0.00  0.00    +0.000 HD
ATOM     19  H   UNL     1       0.299   0.058   1.035  0.00  0.00    +0.000 HD
BRANCH  17  20
ATOM     20  C   UNL     1       0.249   1.010   2.960  0.00  0.00    +0.000 C 
ATOM     21  H   UNL     1       0.015   2.021   2.611  0.00  0.00    +0.000 HD
ATOM     22  H   UNL     1      -0.256   0.895   3.927  0.00  0.00    +0.000 HD
BRANCH  20  26
ATOM     23  C   UNL     1       4.531   0.742   3.540  0.00  0.00    +0.000 A 
ATOM     24  C   UNL     1       4.004   1.561   2.537  0.00  0.00    +0.000 A 
ATOM     25  C   UNL     1       2.622   1.643   2.342  0.00  0.00    +0.000 A 
ATOM     26  C   UNL     1       1.743   0.910   3.151  0.00  0.00    +0.000 A 
ATOM     27  C   UNL     1       2.274   0.076   4.141  0.00  0.00    +0.000 A 
ATOM     28  C   UNL     1       3.655  -0.005   4.335  0.00  0.00    +0.000 A 
ATOM     29  H   UNL     1       4.669   2.153   1.910  0.00  0.00    +0.000 HD
ATOM     30  H   UNL     1       2.243   2.301   1.564  0.00  0.00    +0.000 HD
ATOM     31  H   UNL     1       1.618  -0.508   4.783  0.00  0.00    +0.000 HD
ATOM     32  H   UNL     1       4.046  -0.647   5.122  0.00  0.00    +0.000 HD
BRANCH  23  33
ATOM     33  C   UNL     1       6.010   0.666   3.786  0.00  0.00    +0.000 C 
ATOM     34  H   UNL     1       6.567   1.304   3.092  0.00  0.00    +0.000 HD
ATOM     35  H   UNL     1       6.363  -0.362   3.657  0.00  0.00    +0.000 HD
ATOM     36  H   UNL     1       6.238   1.000   4.804  0.00  0.00    +0.000 HD
ENDBRANCH  23  33
ENDBRANCH  20  26
ENDBRANCH  17  20
ENDBRANCH   1  17
BRANCH   4  37
ATOM     37  C   UNL     1      -1.042   0.653  -2.494  0.00  0.00    +0.000 C 
ATOM     38  H   UNL     1       0.014   0.597  -2.205  0.00  0.00    +0.000 HD
ATOM     39  H   UNL     1      -1.260   1.667  -2.848  0.00  0.00    +0.000 HD
BRANCH  37  40
ATOM     40  C   UNL     1      -1.353  -0.327  -3.602  0.00  0.00    +0.000 A 
ATOM     41  N   UNL     1      -2.620  -0.376  -4.013  0.00  0.00    +0.000 NA
ATOM     42  C   UNL     1      -2.874  -1.327  -4.899  0.00  0.00    +0.000 A 
ATOM     43  N   UNL     1      -4.164  -1.433  -5.364  0.00  0.00    +0.000 N 
ATOM     44  N   UNL     1      -1.981  -2.187  -5.362  0.00  0.00    +0.000 NA
ATOM     45  C   UNL     1      -0.760  -2.074  -4.866  0.00  0.00    +0.000 A 
ATOM     46  N   UNL     1       0.190  -2.974  -5.294  0.00  0.00    +0.000 N 
ATOM     47  N   UNL     1      -0.389  -1.163  -3.982  0.00  0.00    +0.000 NA
ATOM     48  H   UNL     1      -4.665  -0.557  -5.343  0.00  0.00    +0.000 HD
ATOM     49  H   UNL     1      -4.198  -1.953  -6.233  0.00  0.00    +0.000 HD
ATOM     50  H   UNL     1      -0.067  -3.405  -6.174  0.00  0.00    +0.000 HD
ATOM     51  H   UNL     1       1.134  -2.631  -5.209  0.00  0.00    +0.000 HD
ENDBRANCH  37  40
ENDBRANCH   4  37
TORSDOF 6
