REMARK  Name = 
REMARK  6 active torsions:
REMARK  status: ('A' for Active; 'I' for Inactive)
REMARK    1  A    between atoms: C_1  and  C_2
REMARK    2  A    between atoms: C_7  and  N_8
REMARK    3  A    between atoms: N_8  and  C_9
REMARK    4  A    between atoms: N_14  and  C_15
REMARK    5  A    between atoms: C_15  and  C_16
REMARK    6  A    between atoms: C_22  and  N_23
REMARK                            x       y       z     vdW  Elec       q    Type
REMARK                         _______ _______ _______ _____ _____    ______ ____
ROOT
ATOM      1  C   UNL     1       0.783   0.467  -1.160  0.00  0.00    +0.000 A 
ATOM      2  N   UNL     1       0.063   0.901  -2.226  0.00  0.00    +0.000 NA
ATOM      3  C   UNL     1      -1.272   0.729  -2.133  0.00  0.00    +0.000 A 
ATOM      4  N   UNL     1      -1.935   0.170  -1.117  0.00  0.00    +0.000 NA
ATOM      5  C   UNL     1      -1.203  -0.266  -0.082  0.00  0.00    +0.000 A 
ATOM      6  N   UNL     1      -1.829  -0.817   1.051  0.00  0.00    +0.000 N 
ATOM      7  C   UNL     1       0.193  -0.096  -0.020  0.00  0.00    +0.000 A 
ATOM      8  H   UNL     1      -1.876   1.075  -2.967  0.00  0.00    +0.000 HD
ATOM      9  H   UNL     1      -1.298  -1.626   1.361  0.00  0.00    +0.000 HD
ENDROOT
BRANCH   6  10
ATOM     10  C   UNL     1      -3.235  -1.182   0.913  0.00  0.00    +0.000 C 
ATOM     11  H   UNL     1      -3.348  -2.018   0.211  0.00  0.00    +0.000 HD
ATOM     12  H   UNL     1      -3.849  -0.350   0.544  0.00  0.00    +0.000 HD
BRANCH  10  13
ATOM     13  C   UNL     1      -3.722  -1.605   2.282  0.00  0.00    +0.000 A 
ATOM     14  C   UNL     1      -4.410  -0.699   3.102  0.00  0.00    +0.000 A 
ATOM     15  C   UNL     1      -4.777  -1.056   4.401  0.00  0.00    +0.000 A 
ATOM     16  C   UNL     1      -4.451  -2.317   4.897  0.00  0.00    +0.000 A 
ATOM     17  C   UNL     1      -3.771  -3.228   4.091  0.00  0.00    +0.000 A 
ATOM     18  C   UNL     1      -3.411  -2.877   2.789  0.00  0.00    +0.000 A 
ATOM     19  H   UNL     1      -4.650   0.298   2.738  0.00  0.00    +0.000 HD
ATOM     20  H   UNL     1      -5.307  -0.346   5.030  0.00  0.00    +0.000 HD
ATOM     21  H   UNL     1      -4.726  -2.588   5.913  0.00  0.00    +0.000 HD
ATOM     22  H   UNL     1      -3.515  -4.210   4.482  0.00  0.00    +0.000 HD
ATOM     23  H   UNL     1      -2.871  -3.597   2.178  0.00  0.00    +0.000 HD
ENDBRANCH  10  13
ENDBRANCH   6  10
BRANCH   7  24
ATOM     24  N   UNL     1       0.932  -0.676   1.041  0.00  0.00    +0.000 N 
ATOM     25  H   UNL     1       0.358  -0.712   1.889  0.00  0.00    +0.000 HD
ATOM     26  H   UNL     1       1.836  -0.283   1.253  0.00  0.00    +0.000 HD
ENDBRANCH   7  24
BRANCH   1  27
ATOM     27  N   UNL     1       2.198   0.569  -1.236  0.00  0.00    +0.000 N 
ATOM     28  H   UNL     1       2.599   0.645  -0.310  0.00  0.00    +0.000 HD
BRANCH  27  34
ATOM     29  C   UNL     1       4.295   1.512  -2.137  0.00  0.00    +0.000 A 
ATOM     30  C   UNL     1       4.911   2.214  -3.182  0.00  0.00    +0.000 A 
ATOM     31  C   UNL     1       4.165   2.661  -4.267  0.00  0.00    +0.000 A 
ATOM     32  C   UNL     1       2.805   2.407  -4.290  0.00  0.00    +0.000 A 
ATOM     33  N   UNL     1       2.244   1.746  -3.279  0.00  0.00    +0.000 N 
ATOM     34  C   UNL     1       2.909   1.294  -2.201  0.00  0.00    +0.000 A 
ATOM     35  H   UNL     1       5.984   2.413  -3.160  0.00  0.00    +0.000 HD
ATOM     36  H   UNL     1       4.643   3.198  -5.082  0.00  0.00    +0.000 HD
ATOM     37  H   UNL     1       2.150   2.724  -5.094  0.00  0.00    +0.000 HD
ATOM     38  H   UNL     1       1.234   1.543  -3.277  0.00  0.00    +0.000 HD
BRANCH  29  39
ATOM     39  C   UNL     1       5.125   1.077  -0.962  0.00  0.00    +0.000 C 
ATOM     40  H   UNL     1       6.196   1.146  -1.184  0.00  0.00    +0.000 HD
ATOM     41  H   UNL     1       4.916   0.037  -0.697  0.00  0.00    +0.000 HD
ATOM     42  H   UNL     1       4.919   1.722  -0.101  0.00  0.00    +0.000 HD
ENDBRANCH  29  39
ENDBRANCH  27  34
ENDBRANCH   1  27
TORSDOF 6
