REMARK  Name = 
REMARK  10 active torsions:
REMARK  status: ('A' for Active; 'I' for Inactive)
REMARK    1  A    between atoms: C_1  and  C_2
REMARK    2  A    between atoms: C_5  and  N_6
REMARK    3  A    between atoms: C_8  and  C_9
REMARK    4  A    between atoms: C_13  and  N_14
REMARK    5  A    between atoms: C_15  and  C_16
REMARK    6  A    between atoms: C_18  and  C_19
REMARK    7  A    between atoms: C_22  and  O_23
REMARK    8  A    between atoms: O_23  and  C_24
REMARK    9  A    between atoms: C_24  and  C_25
REMARK   10  A    between atoms: C_24  and  C_26
REMARK                            x       y       z     vdW  Elec       q    Type
REMARK                         _______ _______ _______ _____ _____    ______ ____
ROOT
ATOM      1  N   UNL     1       1.041   2.290   0.353  0.00  0.00    +0.000 N 
ATOM      2  N   UNL     1       0.071   1.897  -0.500  0.00  0.00    +0.000 NA
ATOM      3  C   UNL     1      -0.936   1.544   0.309  0.00  0.00    +0.000 A 
ATOM      4  C   UNL     1      -0.421   1.239   1.627  0.00  0.00    +0.000 A 
ATOM      5  C   UNL     1       0.572   2.170   1.686  0.00  0.00    +0.000 A 
ATOM      6  O   UNL     1       1.272   2.335   2.770  0.00  0.00    +0.000 OA
ATOM      7  C   UNL     1       1.903   1.182   3.159  0.00  0.00    +0.000 C 
ATOM      8  C   UNL     1       1.298   0.028   3.823  0.00  0.00    +0.000 C 
ATOM      9  C   UNL     1      -0.148  -0.131   2.603  0.00  0.00    +0.000 C 
ATOM     10  H   UNL     1      -0.950   0.003   3.350  0.00  0.00    +0.000 HD
ENDROOT
BRANCH   1  14
ATOM     11  C   UNL     1       5.050   1.865  -0.697  0.00  0.00    +0.000 A 
ATOM     12  C   UNL     1       4.694   2.895   0.185  0.00  0.00    +0.000 A 
ATOM     13  C   UNL     1       3.348   3.174   0.449  0.00  0.00    +0.000 A 
ATOM     14  C   UNL     1       2.368   2.399  -0.166  0.00  0.00    +0.000 A 
ATOM     15  C   UNL     1       2.721   1.519  -1.204  0.00  0.00    +0.000 A 
ATOM     16  C   UNL     1       4.059   1.235  -1.453  0.00  0.00    +0.000 A 
ATOM     17  H   UNL     1       5.465   3.429   0.737  0.00  0.00    +0.000 HD
ATOM     18  H   UNL     1       3.087   3.920   1.197  0.00  0.00    +0.000 HD
ATOM     19  H   UNL     1       1.964   0.939  -1.732  0.00  0.00    +0.000 HD
ATOM     20  H   UNL     1       4.306   0.451  -2.167  0.00  0.00    +0.000 HD
BRANCH  11  21
ATOM     21  C   UNL     1       6.460   1.339  -0.762  0.00  0.00    +0.000 C 
ATOM     22  H   UNL     1       7.134   1.904  -0.107  0.00  0.00    +0.000 HD
ATOM     23  H   UNL     1       6.844   1.381  -1.781  0.00  0.00    +0.000 HD
ATOM     24  H   UNL     1       6.472   0.307  -0.417  0.00  0.00    +0.000 HD
ENDBRANCH  11  21
ENDBRANCH   1  14
BRANCH   9  25
ATOM     25  C   UNL     1      -0.931  -1.279   1.560  0.00  0.00    +0.000 A 
ATOM     26  C   UNL     1      -2.185  -1.822   1.930  0.00  0.00    +0.000 A 
ATOM     27  C   UNL     1      -3.195  -2.384   0.959  0.00  0.00    +0.000 A 
ATOM     28  C   UNL     1      -3.053  -2.405  -0.445  0.00  0.00    +0.000 A 
ATOM     29  C   UNL     1      -1.831  -1.893  -0.852  0.00  0.00    +0.000 A 
ATOM     30  C   UNL     1      -0.791  -1.369   0.125  0.00  0.00    +0.000 A 
ATOM     31  H   UNL     1      -2.532  -1.787   2.952  0.00  0.00    +0.000 HD
ATOM     32  H   UNL     1      -4.130  -2.758   1.370  0.00  0.00    +0.000 HD
ATOM     33  H   UNL     1      -1.619  -1.807  -1.913  0.00  0.00    +0.000 HD
ATOM     34  H   UNL     1       0.069  -0.904  -0.362  0.00  0.00    +0.000 HD
BRANCH  28  35
ATOM     35  O   UNL     1      -4.151  -2.901  -1.159  0.00  0.00    +0.000 OA
BRANCH  35  36
ATOM     36  C   UNL     1      -4.346  -2.983  -2.616  0.00  0.00    +0.000 C 
ATOM     37  H   UNL     1      -3.391  -3.038  -3.146  0.00  0.00    +0.000 HD
BRANCH  36  38
ATOM     38  C   UNL     1      -5.193  -4.237  -3.023  0.00  0.00    +0.000 C 
ATOM     39  H   UNL     1      -6.182  -4.243  -2.542  0.00  0.00    +0.000 HD
ATOM     40  H   UNL     1      -4.705  -5.181  -2.775  0.00  0.00    +0.000 HD
ATOM     41  H   UNL     1      -5.390  -4.253  -4.110  0.00  0.00    +0.000 HD
ENDBRANCH  36  38
BRANCH  36  42
ATOM     42  C   UNL     1      -5.196  -1.818  -3.161  0.00  0.00    +0.000 C 
ATOM     43  H   UNL     1      -6.184  -1.779  -2.679  0.00  0.00    +0.000 HD
ATOM     44  H   UNL     1      -5.385  -1.931  -4.243  0.00  0.00    +0.000 HD
ATOM     45  H   UNL     1      -4.714  -0.857  -3.006  0.00  0.00    +0.000 HD
ENDBRANCH  36  42
ENDBRANCH  35  36
ENDBRANCH  28  35
ENDBRANCH   9  25
BRANCH   3  46
ATOM     46  C   UNL     1      -2.246   2.105  -0.172  0.00  0.00    +0.000 C 
ATOM     47  H   UNL     1      -2.061   2.776  -1.037  0.00  0.00    +0.000 HD
ATOM     48  H   UNL     1      -2.713   2.743   0.583  0.00  0.00    +0.000 HD
ATOM     49  H   UNL     1      -2.934   1.339  -0.526  0.00  0.00    +0.000 HD
ENDBRANCH   3  46
BRANCH   7  50
ATOM     50  N   UNL     1       3.201   1.276   2.639  0.00  0.00    +0.000 N 
ATOM     51  H   UNL     1       3.588   2.197   2.630  0.00  0.00    +0.000 HD
ATOM     52  H   UNL     1       3.909   0.540   2.761  0.00  0.00    +0.000 HD
ENDBRANCH   7  50
BRANCH   8  53
ATOM     53  C   UNL     1       2.718  -0.227   4.301  0.00  0.00    +0.000 C 
ATOM     54  N   UNL     1       3.896  -0.439   4.697  0.00  0.00    +0.000 NA
ENDBRANCH   8  53
TORSDOF 10
