
 OpenBabel01112423123D

 52 56  0  0  1  0  0  0  0  0999 V2000
    2.4611    0.4101    0.2900 C   0  0  0  0  0  0  0  0  0  0  0  0
    0.9630    0.3250    0.2552 C   0  0  0  0  0  0  0  0  0  0  0  0
    0.1988    0.4969    1.4185 C   0  0  0  0  0  0  0  0  0  0  0  0
   -1.1975    0.4423    1.3683 C   0  0  0  0  0  0  0  0  0  0  0  0
   -1.8318    0.2224    0.1450 C   0  0  0  0  0  0  0  0  0  0  0  0
   -3.6050    0.0998    0.0597 S   0  0  0  0  0  0  0  0  0  0  0  0
   -3.9149   -0.7513   -1.0703 O   0  0  0  0  0  0  0  0  0  0  0  0
   -4.0924   -0.2153    1.3863 O   0  0  0  0  0  0  0  0  0  0  0  0
   -4.1182    1.6490   -0.3241 N   0  0  0  0  0  0  0  0  0  0  0  0
   -4.3527    2.6682    0.7042 C   0  0  0  0  0  0  0  0  0  0  0  0
   -4.7939    3.9013   -0.0939 C   0  0  1  0  0  0  0  0  0  0  0  0
   -4.0789    5.2686    0.0682 C   0  0  0  0  0  0  0  0  0  0  0  0
   -2.9555    4.6998   -0.8295 C   0  0  2  0  0  0  0  0  0  0  0  0
   -2.3711    5.6343   -1.7970 N   0  0  0  0  0  0  0  0  0  0  0  0
   -1.3510    5.2412   -2.6407 C   0  0  0  0  0  0  0  0  0  0  0  0
   -0.8734    4.1108   -2.6069 O   0  0  0  0  0  0  0  0  0  0  0  0
   -0.9053    6.2369   -3.5852 C   0  0  0  0  0  0  0  0  0  0  0  0
   -1.2633    7.5593   -3.7774 C   0  0  0  0  0  0  0  0  0  0  0  0
   -0.5668    8.0514   -4.9127 C   0  0  0  0  0  0  0  0  0  0  0  0
   -0.5665    9.2839   -5.5930 C   0  0  0  0  0  0  0  0  0  0  0  0
    0.2412    9.4358   -6.7240 C   0  0  0  0  0  0  0  0  0  0  0  0
    1.0395    8.3859   -7.1596 C   0  0  0  0  0  0  0  0  0  0  0  0
    1.7991    8.5564   -8.2502 F   0  0  0  0  0  0  0  0  0  0  0  0
    1.0704    7.1568   -6.4993 C   0  0  0  0  0  0  0  0  0  0  0  0
    0.2465    7.0186   -5.3771 C   0  0  0  0  0  0  0  0  0  0  0  0
    0.0443    5.9431   -4.5429 N   0  0  0  0  0  0  0  0  0  0  0  0
   -4.0421    3.7577   -1.4367 C   0  0  1  0  0  0  0  0  0  0  0  0
   -3.7019    2.2848   -1.5838 C   0  0  0  0  0  0  0  0  0  0  0  0
   -1.0775   -0.0021   -1.0124 C   0  0  0  0  0  0  0  0  0  0  0  0
    0.3143    0.0622   -0.9578 C   0  0  0  0  0  0  0  0  0  0  0  0
    2.8264    0.6618    1.2906 H   0  0  0  0  0  0  0  0  0  0  0  0
    2.8088    1.1892   -0.3973 H   0  0  0  0  0  0  0  0  0  0  0  0
    2.9033   -0.5481   -0.0009 H   0  0  0  0  0  0  0  0  0  0  0  0
    0.6893    0.6703    2.3743 H   0  0  0  0  0  0  0  0  0  0  0  0
   -1.7757    0.5591    2.2816 H   0  0  0  0  0  0  0  0  0  0  0  0
   -3.4390    2.8598    1.2758 H   0  0  0  0  0  0  0  0  0  0  0  0
   -5.1473    2.3565    1.3880 H   0  0  0  0  0  0  0  0  0  0  0  0
   -5.8837    3.9633   -0.1967 H   0  0  0  0  0  0  0  0  0  0  0  0
   -3.7958    5.5413    1.0871 H   0  0  0  0  0  0  0  0  0  0  0  0
   -4.6411    6.1017   -0.3741 H   0  0  0  0  0  0  0  0  0  0  0  0
   -2.1766    4.1953   -0.2434 H   0  0  0  0  0  0  0  0  0  0  0  0
   -2.7455    6.5665   -1.9074 H   0  0  0  0  0  0  0  0  0  0  0  0
   -1.9742    8.1253   -3.1917 H   0  0  0  0  0  0  0  0  0  0  0  0
   -1.1926   10.1025   -5.2516 H   0  0  0  0  0  0  0  0  0  0  0  0
    0.2445   10.3737   -7.2712 H   0  0  0  0  0  0  0  0  0  0  0  0
    1.7021    6.3533   -6.8596 H   0  0  0  0  0  0  0  0  0  0  0  0
    0.4916    5.0411   -4.6294 H   0  0  0  0  0  0  0  0  0  0  0  0
   -4.5731    4.1843   -2.2989 H   0  0  0  0  0  0  0  0  0  0  0  0
   -2.6355    2.1627   -1.7798 H   0  0  0  0  0  0  0  0  0  0  0  0
   -4.2674    1.8428   -2.4090 H   0  0  0  0  0  0  0  0  0  0  0  0
   -1.5650   -0.2216   -1.9602 H   0  0  0  0  0  0  0  0  0  0  0  0
    0.8918   -0.0953   -1.8666 H   0  0  0  0  0  0  0  0  0  0  0  0
  1  2  1  0  0  0  0
  1 31  1  0  0  0  0
  1 32  1  0  0  0  0
  1 33  1  0  0  0  0
  2  3  1  0  0  0  0
  2 30  2  0  0  0  0
  3  4  2  0  0  0  0
  3 34  1  0  0  0  0
  4  5  1  0  0  0  0
  4 35  1  0  0  0  0
  5  6  1  0  0  0  0
  5 29  2  0  0  0  0
  6  7  2  0  0  0  0
  6  8  2  0  0  0  0
  6  9  1  0  0  0  0
  9 10  1  0  0  0  0
  9 28  1  0  0  0  0
 10 11  1  0  0  0  0
 10 36  1  0  0  0  0
 10 37  1  0  0  0  0
 11 12  1  0  0  0  0
 11 27  1  0  0  0  0
 11 38  1  6  0  0  0
 12 13  1  0  0  0  0
 12 39  1  0  0  0  0
 12 40  1  0  0  0  0
 13 14  1  0  0  0  0
 13 27  1  0  0  0  0
 13 41  1  1  0  0  0
 14 15  1  0  0  0  0
 14 42  1  0  0  0  0
 15 16  2  0  0  0  0
 15 17  1  0  0  0  0
 17 18  2  0  0  0  0
 17 26  1  0  0  0  0
 18 19  1  0  0  0  0
 18 43  1  0  0  0  0
 19 20  1  0  0  0  0
 19 25  2  0  0  0  0
 20 21  2  0  0  0  0
 20 44  1  0  0  0  0
 21 22  1  0  0  0  0
 21 45  1  0  0  0  0
 22 23  1  0  0  0  0
 22 24  2  0  0  0  0
 24 25  1  0  0  0  0
 24 46  1  0  0  0  0
 25 26  1  0  0  0  0
 26 47  1  0  0  0  0
 27 28  1  0  0  0  0
 27 48  1  6  0  0  0
 28 49  1  0  0  0  0
 28 50  1  0  0  0  0
 29 30  1  0  0  0  0
 29 51  1  0  0  0  0
 30 52  1  0  0  0  0
M  END
$$$$
