MODEL 1
REMARK VINA RESULT:    -8.754      0.000      0.000
REMARK INTER + INTRA:         -11.388
REMARK INTER:                 -11.057
REMARK INTRA:                  -0.330
REMARK UNBOUND:                -0.330
REMARK  Name = 
REMARK  5 active torsions:
REMARK  status: ('A' for Active; 'I' for Inactive)
REMARK    1  A    between atoms: N_1  and  C_2
REMARK    2  A    between atoms: N_4  and  C_5
REMARK    3  A    between atoms: C_5  and  C_6
REMARK    4  A    between atoms: C_14  and  N_15
REMARK    5  A    between atoms: N_15  and  C_16
REMARK                            x       y       z     vdW  Elec       q    Type
REMARK                         _______ _______ _______ _____ _____    ______ ____
ROOT
ATOM      1  C   UNL     1      -8.490  -5.039  19.575  0.00  0.00    +0.000 A 
ATOM      2  C   UNL     1      -9.151  -5.905  18.672  0.00  0.00    +0.000 A 
ATOM      3  N   UNL     1      -8.592  -7.179  18.462  0.00  0.00    +0.000 N 
ATOM      4  N   UNL     1     -10.282  -5.559  18.043  0.00  0.00    +0.000 NA
ATOM      5  C   UNL     1     -10.752  -4.345  18.325  0.00  0.00    +0.000 A 
ATOM      6  N   UNL     1     -10.196  -3.483  19.175  0.00  0.00    +0.000 N 
ATOM      7  C   UNL     1      -9.062  -3.770  19.824  0.00  0.00    +0.000 A 
ATOM      8  H   UNL     1      -8.879  -7.791  19.223  0.00  0.00    +0.000 HD
ATOM      9  H   UNL     1     -11.664  -4.019  17.828  0.00  0.00    +0.000 HD
ATOM     10  H   UNL     1     -10.647  -2.593  19.316  0.00  0.00    +0.000 HD
ENDROOT
BRANCH   1  11
ATOM     11  N   UNL     1      -7.357  -5.507  20.298  0.00  0.00    +0.000 N 
ATOM     12  H   UNL     1      -6.558  -4.903  20.072  0.00  0.00    +0.000 HD
ATOM     13  H   UNL     1      -7.515  -5.535  21.302  0.00  0.00    +0.000 HD
ENDBRANCH   1  11
BRANCH   3  14
ATOM     14  C   UNL     1      -8.785  -7.774  17.131  0.00  0.00    +0.000 C 
ATOM     15  H   UNL     1      -7.836  -8.029  16.643  0.00  0.00    +0.000 HD
ATOM     16  H   UNL     1      -9.273  -7.019  16.502  0.00  0.00    +0.000 HD
BRANCH  14  17
ATOM     17  C   UNL     1      -9.718  -9.006  17.235  0.00  0.00    +0.000 C 
ATOM     18  C   UNL     1      -9.897  -9.741  15.913  0.00  0.00    +0.000 C 
ATOM     19  C   UNL     1      -8.836 -10.808  15.972  0.00  0.00    +0.000 C 
ATOM     20  C   UNL     1      -8.812 -11.156  17.443  0.00  0.00    +0.000 C 
ATOM     21  O   UNL     1      -9.165  -9.968  18.163  0.00  0.00    +0.000 OA
ATOM     22  H   UNL     1     -10.693  -8.683  17.621  0.00  0.00    +0.000 HD
ATOM     23  H   UNL     1      -9.825  -9.100  15.030  0.00  0.00    +0.000 HD
ATOM     24  H   UNL     1     -10.885 -10.219  15.895  0.00  0.00    +0.000 HD
ATOM     25  H   UNL     1      -7.870 -10.392  15.667  0.00  0.00    +0.000 HD
ATOM     26  H   UNL     1      -9.049 -11.673  15.338  0.00  0.00    +0.000 HD
ATOM     27  H   UNL     1      -7.827 -11.499  17.774  0.00  0.00    +0.000 HD
ATOM     28  H   UNL     1      -9.550 -11.927  17.685  0.00  0.00    +0.000 HD
ENDBRANCH  14  17
ENDBRANCH   3  14
BRANCH   7  29
ATOM     29  N   UNL     1      -8.410  -2.818  20.608  0.00  0.00    +0.000 N 
ATOM     30  H   UNL     1      -7.404  -2.760  20.429  0.00  0.00    +0.000 HD
BRANCH  29  31
ATOM     31  C   UNL     1      -8.889  -2.301  21.903  0.00  0.00    +0.000 C 
ATOM     32  C   UNL     1      -8.798  -3.383  23.006  0.00  0.00    +0.000 C 
ATOM     33  C   UNL     1      -9.407  -2.862  24.318  0.00  0.00    +0.000 C 
ATOM     34  C   UNL     1      -8.573  -1.671  24.813  0.00  0.00    +0.000 C 
ATOM     35  C   UNL     1      -8.563  -0.562  23.746  0.00  0.00    +0.000 C 
ATOM     36  C   UNL     1     -10.013  -0.080  23.561  0.00  0.00    +0.000 C 
ATOM     37  C   UNL     1     -10.883  -1.239  23.062  0.00  0.00    +0.000 C 
ATOM     38  C   UNL     1     -10.854  -2.407  24.064  0.00  0.00    +0.000 C 
ATOM     39  C   UNL     1     -10.317  -1.720  21.728  0.00  0.00    +0.000 C 
ATOM     40  C   UNL     1      -8.007  -1.118  22.404  0.00  0.00    +0.000 C 
ATOM     41  H   UNL     1      -7.747  -3.658  23.173  0.00  0.00    +0.000 HD
ATOM     42  H   UNL     1      -9.294  -4.315  22.728  0.00  0.00    +0.000 HD
ATOM     43  H   UNL     1      -9.397  -3.658  25.070  0.00  0.00    +0.000 HD
ATOM     44  H   UNL     1      -7.548  -1.990  25.035  0.00  0.00    +0.000 HD
ATOM     45  H   UNL     1      -8.996  -1.288  25.751  0.00  0.00    +0.000 HD
ATOM     46  H   UNL     1      -7.943   0.274  24.089  0.00  0.00    +0.000 HD
ATOM     47  H   UNL     1     -10.044   0.751  22.844  0.00  0.00    +0.000 HD
ATOM     48  H   UNL     1     -10.414   0.302  24.508  0.00  0.00    +0.000 HD
ATOM     49  H   UNL     1     -11.914  -0.897  22.919  0.00  0.00    +0.000 HD
ATOM     50  H   UNL     1     -11.443  -3.247  23.671  0.00  0.00    +0.000 HD
ATOM     51  H   UNL     1     -11.323  -2.100  25.003  0.00  0.00    +0.000 HD
ATOM     52  H   UNL     1     -10.289  -0.888  21.010  0.00  0.00    +0.000 HD
ATOM     53  H   UNL     1     -11.024  -2.438  21.308  0.00  0.00    +0.000 HD
ATOM     54  H   UNL     1      -6.968  -1.444  22.547  0.00  0.00    +0.000 HD
ATOM     55  H   UNL     1      -7.978  -0.315  21.656  0.00  0.00    +0.000 HD
ENDBRANCH  29  31
ENDBRANCH   7  29
TORSDOF 5
ENDMDL
MODEL 2
REMARK VINA RESULT:    -8.737      1.039      2.450
REMARK INTER + INTRA:         -11.365
REMARK INTER:                 -11.050
REMARK INTRA:                  -0.315
REMARK UNBOUND:                -0.330
REMARK  Name = 
REMARK  5 active torsions:
REMARK  status: ('A' for Active; 'I' for Inactive)
REMARK    1  A    between atoms: N_1  and  C_2
REMARK    2  A    between atoms: N_4  and  C_5
REMARK    3  A    between atoms: C_5  and  C_6
REMARK    4  A    between atoms: C_14  and  N_15
REMARK    5  A    between atoms: N_15  and  C_16
REMARK                            x       y       z     vdW  Elec       q    Type
REMARK                         _______ _______ _______ _____ _____    ______ ____
ROOT
ATOM      1  C   UNL     1      -8.823  -4.322  19.645  0.00  0.00    +0.000 A 
ATOM      2  C   UNL     1      -8.596  -5.660  19.246  0.00  0.00    +0.000 A 
ATOM      3  N   UNL     1      -9.582  -6.282  18.459  0.00  0.00    +0.000 N 
ATOM      4  N   UNL     1      -7.480  -6.327  19.570  0.00  0.00    +0.000 NA
ATOM      5  C   UNL     1      -6.590  -5.648  20.293  0.00  0.00    +0.000 A 
ATOM      6  N   UNL     1      -6.726  -4.384  20.691  0.00  0.00    +0.000 N 
ATOM      7  C   UNL     1      -7.822  -3.672  20.404  0.00  0.00    +0.000 A 
ATOM      8  H   UNL     1      -9.457  -5.995  17.491  0.00  0.00    +0.000 HD
ATOM      9  H   UNL     1      -5.674  -6.155  20.587  0.00  0.00    +0.000 HD
ATOM     10  H   UNL     1      -5.981  -3.970  21.229  0.00  0.00    +0.000 HD
ENDROOT
BRANCH   1  11
ATOM     11  N   UNL     1      -9.974  -3.632  19.173  0.00  0.00    +0.000 N 
ATOM     12  H   UNL     1     -10.713  -3.714  19.882  0.00  0.00    +0.000 HD
ATOM     13  H   UNL     1      -9.788  -2.655  18.961  0.00  0.00    +0.000 HD
ENDBRANCH   1  11
BRANCH   3  14
ATOM     14  C   UNL     1      -9.736  -7.736  18.622  0.00  0.00    +0.000 C 
ATOM     15  H   UNL     1     -10.788  -8.048  18.637  0.00  0.00    +0.000 HD
ATOM     16  H   UNL     1      -9.310  -8.004  19.596  0.00  0.00    +0.000 HD
BRANCH  14  17
ATOM     17  C   UNL     1      -8.943  -8.476  17.516  0.00  0.00    +0.000 C 
ATOM     18  C   UNL     1      -8.995  -9.993  17.649  0.00  0.00    +0.000 C 
ATOM     19  C   UNL     1     -10.157 -10.370  16.767  0.00  0.00    +0.000 C 
ATOM     20  C   UNL     1     -10.058  -9.354  15.652  0.00  0.00    +0.000 C 
ATOM     21  O   UNL     1      -9.495  -8.163  16.217  0.00  0.00    +0.000 OA
ATOM     22  H   UNL     1      -7.901  -8.133  17.535  0.00  0.00    +0.000 HD
ATOM     23  H   UNL     1      -9.093 -10.351  18.678  0.00  0.00    +0.000 HD
ATOM     24  H   UNL     1      -8.076 -10.426  17.233  0.00  0.00    +0.000 HD
ATOM     25  H   UNL     1     -11.098 -10.240  17.313  0.00  0.00    +0.000 HD
ATOM     26  H   UNL     1     -10.115 -11.400  16.403  0.00  0.00    +0.000 HD
ATOM     27  H   UNL     1     -11.032  -9.120  15.213  0.00  0.00    +0.000 HD
ATOM     28  H   UNL     1      -9.389  -9.697  14.856  0.00  0.00    +0.000 HD
ENDBRANCH  14  17
ENDBRANCH   3  14
BRANCH   7  29
ATOM     29  N   UNL     1      -8.021  -2.397  20.935  0.00  0.00    +0.000 N 
ATOM     30  H   UNL     1      -7.335  -1.709  20.614  0.00  0.00    +0.000 HD
BRANCH  29  31
ATOM     31  C   UNL     1      -8.737  -2.093  22.187  0.00  0.00    +0.000 C 
ATOM     32  C   UNL     1     -10.220  -1.741  21.913  0.00  0.00    +0.000 C 
ATOM     33  C   UNL     1     -10.918  -1.316  23.215  0.00  0.00    +0.000 C 
ATOM     34  C   UNL     1     -10.930  -2.508  24.184  0.00  0.00    +0.000 C 
ATOM     35  C   UNL     1      -9.487  -2.962  24.469  0.00  0.00    +0.000 C 
ATOM     36  C   UNL     1      -8.760  -1.796  25.163  0.00  0.00    +0.000 C 
ATOM     37  C   UNL     1      -8.722  -0.582  24.228  0.00  0.00    +0.000 C 
ATOM     38  C   UNL     1     -10.148  -0.145  23.849  0.00  0.00    +0.000 C 
ATOM     39  C   UNL     1      -7.975  -0.982  22.958  0.00  0.00    +0.000 C 
ATOM     40  C   UNL     1      -8.769  -3.326  23.139  0.00  0.00    +0.000 C 
ATOM     41  H   UNL     1     -10.737  -2.613  21.486  0.00  0.00    +0.000 HD
ATOM     42  H   UNL     1     -10.339  -0.950  21.170  0.00  0.00    +0.000 HD
ATOM     43  H   UNL     1     -11.946  -1.007  22.997  0.00  0.00    +0.000 HD
ATOM     44  H   UNL     1     -11.509  -3.338  23.760  0.00  0.00    +0.000 HD
ATOM     45  H   UNL     1     -11.427  -2.220  25.119  0.00  0.00    +0.000 HD
ATOM     46  H   UNL     1      -9.500  -3.831  25.137  0.00  0.00    +0.000 HD
ATOM     47  H   UNL     1      -7.740  -2.097  25.433  0.00  0.00    +0.000 HD
ATOM     48  H   UNL     1      -9.271  -1.527  26.096  0.00  0.00    +0.000 HD
ATOM     49  H   UNL     1      -8.196   0.247  24.714  0.00  0.00    +0.000 HD
ATOM     50  H   UNL     1     -10.103   0.695  23.142  0.00  0.00    +0.000 HD
ATOM     51  H   UNL     1     -10.674   0.214  24.738  0.00  0.00    +0.000 HD
ATOM     52  H   UNL     1      -6.966  -1.339  23.211  0.00  0.00    +0.000 HD
ATOM     53  H   UNL     1      -7.820  -0.079  22.366  0.00  0.00    +0.000 HD
ATOM     54  H   UNL     1      -9.289  -4.168  22.663  0.00  0.00    +0.000 HD
ATOM     55  H   UNL     1      -7.750  -3.674  23.353  0.00  0.00    +0.000 HD
ENDBRANCH  29  31
ENDBRANCH   7  29
TORSDOF 5
ENDMDL
MODEL 3
REMARK VINA RESULT:    -8.727      4.966      6.604
REMARK INTER + INTRA:         -11.354
REMARK INTER:                 -10.891
REMARK INTRA:                  -0.463
REMARK UNBOUND:                -0.330
REMARK  Name = 
REMARK  5 active torsions:
REMARK  status: ('A' for Active; 'I' for Inactive)
REMARK    1  A    between atoms: N_1  and  C_2
REMARK    2  A    between atoms: N_4  and  C_5
REMARK    3  A    between atoms: C_5  and  C_6
REMARK    4  A    between atoms: C_14  and  N_15
REMARK    5  A    between atoms: N_15  and  C_16
REMARK                            x       y       z     vdW  Elec       q    Type
REMARK                         _______ _______ _______ _____ _____    ______ ____
ROOT
ATOM      1  C   UNL     1     -10.094  -7.222  16.158  0.00  0.00    +0.000 A 
ATOM      2  C   UNL     1      -9.684  -7.888  17.336  0.00  0.00    +0.000 A 
ATOM      3  N   UNL     1      -8.704  -8.891  17.213  0.00  0.00    +0.000 N 
ATOM      4  N   UNL     1     -10.176  -7.581  18.544  0.00  0.00    +0.000 NA
ATOM      5  C   UNL     1     -11.077  -6.600  18.568  0.00  0.00    +0.000 A 
ATOM      6  N   UNL     1     -11.499  -5.917  17.505  0.00  0.00    +0.000 N 
ATOM      7  C   UNL     1     -11.050  -6.187  16.274  0.00  0.00    +0.000 A 
ATOM      8  H   UNL     1      -7.788  -8.449  17.170  0.00  0.00    +0.000 HD
ATOM      9  H   UNL     1     -11.511  -6.325  19.527  0.00  0.00    +0.000 HD
ATOM     10  H   UNL     1     -12.181  -5.188  17.645  0.00  0.00    +0.000 HD
ENDROOT
BRANCH   1  11
ATOM     11  N   UNL     1      -9.451  -7.516  14.923  0.00  0.00    +0.000 N 
ATOM     12  H   UNL     1      -9.111  -8.485  14.958  0.00  0.00    +0.000 HD
ATOM     13  H   UNL     1     -10.060  -7.379  14.120  0.00  0.00    +0.000 HD
ENDBRANCH   1  11
BRANCH   3  14
ATOM     14  C   UNL     1      -8.772 -10.004  18.173  0.00  0.00    +0.000 C 
ATOM     15  H   UNL     1      -9.226  -9.708  19.126  0.00  0.00    +0.000 HD
ATOM     16  H   UNL     1      -7.742 -10.311  18.392  0.00  0.00    +0.000 HD
BRANCH  14  17
ATOM     17  C   UNL     1      -9.520 -11.202  17.537  0.00  0.00    +0.000 C 
ATOM     18  C   UNL     1      -9.521 -11.172  16.014  0.00  0.00    +0.000 C 
ATOM     19  C   UNL     1      -8.320 -12.008  15.657  0.00  0.00    +0.000 C 
ATOM     20  C   UNL     1      -8.321 -13.055  16.749  0.00  0.00    +0.000 C 
ATOM     21  O   UNL     1      -8.881 -12.442  17.918  0.00  0.00    +0.000 OA
ATOM     22  H   UNL     1     -10.550 -11.220  17.914  0.00  0.00    +0.000 HD
ATOM     23  H   UNL     1      -9.497 -10.167  15.584  0.00  0.00    +0.000 HD
ATOM     24  H   UNL     1     -10.426 -11.669  15.642  0.00  0.00    +0.000 HD
ATOM     25  H   UNL     1      -7.410 -11.402  15.718  0.00  0.00    +0.000 HD
ATOM     26  H   UNL     1      -8.372 -12.445  14.656  0.00  0.00    +0.000 HD
ATOM     27  H   UNL     1      -7.316 -13.419  16.978  0.00  0.00    +0.000 HD
ATOM     28  H   UNL     1      -8.951 -13.910  16.484  0.00  0.00    +0.000 HD
ENDBRANCH  14  17
ENDBRANCH   3  14
BRANCH   7  29
ATOM     29  N   UNL     1     -11.590  -5.564  15.149  0.00  0.00    +0.000 N 
ATOM     30  H   UNL     1     -11.962  -6.221  14.457  0.00  0.00    +0.000 HD
BRANCH  29  31
ATOM     31  C   UNL     1     -11.249  -4.212  14.670  0.00  0.00    +0.000 C 
ATOM     32  C   UNL     1     -11.492  -3.151  15.771  0.00  0.00    +0.000 C 
ATOM     33  C   UNL     1     -11.240  -1.739  15.216  0.00  0.00    +0.000 C 
ATOM     34  C   UNL     1      -9.761  -1.618  14.820  0.00  0.00    +0.000 C 
ATOM     35  C   UNL     1      -9.417  -2.681  13.762  0.00  0.00    +0.000 C 
ATOM     36  C   UNL     1     -10.267  -2.389  12.513  0.00  0.00    +0.000 C 
ATOM     37  C   UNL     1     -11.754  -2.502  12.862  0.00  0.00    +0.000 C 
ATOM     38  C   UNL     1     -12.125  -1.510  13.979  0.00  0.00    +0.000 C 
ATOM     39  C   UNL     1     -12.022  -3.922  13.356  0.00  0.00    +0.000 C 
ATOM     40  C   UNL     1      -9.738  -4.101  14.309  0.00  0.00    +0.000 C 
ATOM     41  H   UNL     1     -10.821  -3.336  16.622  0.00  0.00    +0.000 HD
ATOM     42  H   UNL     1     -12.499  -3.195  16.189  0.00  0.00    +0.000 HD
ATOM     43  H   UNL     1     -11.478  -0.994  15.984  0.00  0.00    +0.000 HD
ATOM     44  H   UNL     1      -9.119  -1.741  15.701  0.00  0.00    +0.000 HD
ATOM     45  H   UNL     1      -9.565  -0.613  14.423  0.00  0.00    +0.000 HD
ATOM     46  H   UNL     1      -8.354  -2.612  13.503  0.00  0.00    +0.000 HD
ATOM     47  H   UNL     1     -10.012  -3.094  11.711  0.00  0.00    +0.000 HD
ATOM     48  H   UNL     1     -10.053  -1.383  12.130  0.00  0.00    +0.000 HD
ATOM     49  H   UNL     1     -12.363  -2.305  11.973  0.00  0.00    +0.000 HD
ATOM     50  H   UNL     1     -13.182  -1.636  14.252  0.00  0.00    +0.000 HD
ATOM     51  H   UNL     1     -12.009  -0.485  13.617  0.00  0.00    +0.000 HD
ATOM     52  H   UNL     1     -11.723  -4.650  12.587  0.00  0.00    +0.000 HD
ATOM     53  H   UNL     1     -13.101  -4.039  13.458  0.00  0.00    +0.000 HD
ATOM     54  H   UNL     1      -9.114  -4.302  15.189  0.00  0.00    +0.000 HD
ATOM     55  H   UNL     1      -9.464  -4.856  13.559  0.00  0.00    +0.000 HD
ENDBRANCH  29  31
ENDBRANCH   7  29
TORSDOF 5
ENDMDL
MODEL 4
REMARK VINA RESULT:    -8.697      2.367      3.324
REMARK INTER + INTRA:         -11.316
REMARK INTER:                 -10.651
REMARK INTRA:                  -0.665
REMARK UNBOUND:                -0.330
REMARK  Name = 
REMARK  5 active torsions:
REMARK  status: ('A' for Active; 'I' for Inactive)
REMARK    1  A    between atoms: N_1  and  C_2
REMARK    2  A    between atoms: N_4  and  C_5
REMARK    3  A    between atoms: C_5  and  C_6
REMARK    4  A    between atoms: C_14  and  N_15
REMARK    5  A    between atoms: N_15  and  C_16
REMARK                            x       y       z     vdW  Elec       q    Type
REMARK                         _______ _______ _______ _____ _____    ______ ____
ROOT
ATOM      1  C   UNL     1     -11.657  -2.869  19.461  0.00  0.00    +0.000 A 
ATOM      2  C   UNL     1     -11.358  -3.264  18.136  0.00  0.00    +0.000 A 
ATOM      3  N   UNL     1     -11.964  -4.439  17.652  0.00  0.00    +0.000 N 
ATOM      4  N   UNL     1     -10.548  -2.554  17.340  0.00  0.00    +0.000 NA
ATOM      5  C   UNL     1     -10.043  -1.442  17.873  0.00  0.00    +0.000 A 
ATOM      6  N   UNL     1     -10.291  -0.998  19.104  0.00  0.00    +0.000 N 
ATOM      7  C   UNL     1     -11.084  -1.671  19.946  0.00  0.00    +0.000 A 
ATOM      8  H   UNL     1     -12.910  -4.217  17.349  0.00  0.00    +0.000 HD
ATOM      9  H   UNL     1      -9.372  -0.840  17.264  0.00  0.00    +0.000 HD
ATOM     10  H   UNL     1      -9.858  -0.137  19.398  0.00  0.00    +0.000 HD
ENDROOT
BRANCH   1  11
ATOM     11  N   UNL     1     -12.613  -3.605  20.216  0.00  0.00    +0.000 N 
ATOM     12  H   UNL     1     -13.529  -3.154  20.104  0.00  0.00    +0.000 HD
ATOM     13  H   UNL     1     -12.659  -4.584  19.945  0.00  0.00    +0.000 HD
ENDBRANCH   1  11
BRANCH   3  14
ATOM     14  C   UNL     1     -11.201  -5.218  16.665  0.00  0.00    +0.000 C 
ATOM     15  H   UNL     1     -10.257  -4.733  16.386  0.00  0.00    +0.000 HD
ATOM     16  H   UNL     1     -11.809  -5.278  15.754  0.00  0.00    +0.000 HD
BRANCH  14  17
ATOM     17  C   UNL     1     -10.965  -6.653  17.196  0.00  0.00    +0.000 C 
ATOM     18  C   UNL     1      -9.709  -7.306  16.633  0.00  0.00    +0.000 C 
ATOM     19  C   UNL     1      -8.666  -6.982  17.671  0.00  0.00    +0.000 C 
ATOM     20  C   UNL     1      -9.463  -7.028  18.954  0.00  0.00    +0.000 C 
ATOM     21  O   UNL     1     -10.802  -6.628  18.632  0.00  0.00    +0.000 OA
ATOM     22  H   UNL     1     -11.844  -7.268  16.964  0.00  0.00    +0.000 HD
ATOM     23  H   UNL     1      -9.443  -6.973  15.626  0.00  0.00    +0.000 HD
ATOM     24  H   UNL     1      -9.850  -8.394  16.597  0.00  0.00    +0.000 HD
ATOM     25  H   UNL     1      -8.275  -5.971  17.506  0.00  0.00    +0.000 HD
ATOM     26  H   UNL     1      -7.821  -7.676  17.675  0.00  0.00    +0.000 HD
ATOM     27  H   UNL     1      -9.060  -6.358  19.719  0.00  0.00    +0.000 HD
ATOM     28  H   UNL     1      -9.504  -8.042  19.365  0.00  0.00    +0.000 HD
ENDBRANCH  14  17
ENDBRANCH   3  14
BRANCH   7  29
ATOM     29  N   UNL     1     -11.236  -1.276  21.276  0.00  0.00    +0.000 N 
ATOM     30  H   UNL     1     -11.935  -0.540  21.406  0.00  0.00    +0.000 HD
BRANCH  29  31
ATOM     31  C   UNL     1     -10.225  -1.432  22.336  0.00  0.00    +0.000 C 
ATOM     32  C   UNL     1      -9.685  -0.058  22.803  0.00  0.00    +0.000 C 
ATOM     33  C   UNL     1      -8.553  -0.247  23.825  0.00  0.00    +0.000 C 
ATOM     34  C   UNL     1      -9.122  -0.933  25.076  0.00  0.00    +0.000 C 
ATOM     35  C   UNL     1      -9.734  -2.292  24.692  0.00  0.00    +0.000 C 
ATOM     36  C   UNL     1      -8.600  -3.176  24.144  0.00  0.00    +0.000 C 
ATOM     37  C   UNL     1      -8.002  -2.530  22.889  0.00  0.00    +0.000 C 
ATOM     38  C   UNL     1      -7.452  -1.129  23.211  0.00  0.00    +0.000 C 
ATOM     39  C   UNL     1      -9.111  -2.396  21.847  0.00  0.00    +0.000 C 
ATOM     40  C   UNL     1     -10.833  -2.095  23.609  0.00  0.00    +0.000 C 
ATOM     41  H   UNL     1     -10.497   0.527  23.258  0.00  0.00    +0.000 HD
ATOM     42  H   UNL     1      -9.321   0.558  21.977  0.00  0.00    +0.000 HD
ATOM     43  H   UNL     1      -8.135   0.728  24.096  0.00  0.00    +0.000 HD
ATOM     44  H   UNL     1      -9.882  -0.296  25.546  0.00  0.00    +0.000 HD
ATOM     45  H   UNL     1      -8.324  -1.074  25.816  0.00  0.00    +0.000 HD
ATOM     46  H   UNL     1     -10.167  -2.765  25.581  0.00  0.00    +0.000 HD
ATOM     47  H   UNL     1      -8.985  -4.176  23.907  0.00  0.00    +0.000 HD
ATOM     48  H   UNL     1      -7.816  -3.307  24.900  0.00  0.00    +0.000 HD
ATOM     49  H   UNL     1      -7.202  -3.161  22.489  0.00  0.00    +0.000 HD
ATOM     50  H   UNL     1      -7.071  -0.660  22.293  0.00  0.00    +0.000 HD
ATOM     51  H   UNL     1      -6.608  -1.213  23.901  0.00  0.00    +0.000 HD
ATOM     52  H   UNL     1      -9.548  -3.382  21.634  0.00  0.00    +0.000 HD
ATOM     53  H   UNL     1      -8.650  -2.078  20.911  0.00  0.00    +0.000 HD
ATOM     54  H   UNL     1     -11.642  -1.476  24.018  0.00  0.00    +0.000 HD
ATOM     55  H   UNL     1     -11.283  -3.065  23.360  0.00  0.00    +0.000 HD
ENDBRANCH  29  31
ENDBRANCH   7  29
TORSDOF 5
ENDMDL
MODEL 5
REMARK VINA RESULT:    -8.687      2.486      8.686
REMARK INTER + INTRA:         -11.303
REMARK INTER:                 -10.692
REMARK INTRA:                  -0.611
REMARK UNBOUND:                -0.330
REMARK  Name = 
REMARK  5 active torsions:
REMARK  status: ('A' for Active; 'I' for Inactive)
REMARK    1  A    between atoms: N_1  and  C_2
REMARK    2  A    between atoms: N_4  and  C_5
REMARK    3  A    between atoms: C_5  and  C_6
REMARK    4  A    between atoms: C_14  and  N_15
REMARK    5  A    between atoms: N_15  and  C_16
REMARK                            x       y       z     vdW  Elec       q    Type
REMARK                         _______ _______ _______ _____ _____    ______ ____
ROOT
ATOM      1  C   UNL     1      -8.405  -5.422  19.045  0.00  0.00    +0.000 A 
ATOM      2  C   UNL     1      -7.547  -4.962  20.070  0.00  0.00    +0.000 A 
ATOM      3  N   UNL     1      -8.139  -4.351  21.192  0.00  0.00    +0.000 N 
ATOM      4  N   UNL     1      -6.217  -5.110  20.015  0.00  0.00    +0.000 NA
ATOM      5  C   UNL     1      -5.749  -5.726  18.930  0.00  0.00    +0.000 A 
ATOM      6  N   UNL     1      -6.495  -6.201  17.933  0.00  0.00    +0.000 N 
ATOM      7  C   UNL     1      -7.826  -6.073  17.931  0.00  0.00    +0.000 A 
ATOM      8  H   UNL     1      -8.468  -5.077  21.824  0.00  0.00    +0.000 HD
ATOM      9  H   UNL     1      -4.673  -5.859  18.839  0.00  0.00    +0.000 HD
ATOM     10  H   UNL     1      -6.030  -6.657  17.164  0.00  0.00    +0.000 HD
ENDROOT
BRANCH   1  11
ATOM     11  N   UNL     1      -9.816  -5.337  19.216  0.00  0.00    +0.000 N 
ATOM     12  H   UNL     1     -10.228  -6.242  18.958  0.00  0.00    +0.000 HD
ATOM     13  H   UNL     1     -10.082  -5.078  20.163  0.00  0.00    +0.000 HD
ENDBRANCH   1  11
BRANCH   3  14
ATOM     14  C   UNL     1      -7.354  -3.303  21.863  0.00  0.00    +0.000 C 
ATOM     15  H   UNL     1      -6.364  -3.166  21.412  0.00  0.00    +0.000 HD
ATOM     16  H   UNL     1      -7.190  -3.629  22.898  0.00  0.00    +0.000 HD
BRANCH  14  17
ATOM     17  C   UNL     1      -8.156  -1.978  21.885  0.00  0.00    +0.000 C 
ATOM     18  C   UNL     1      -9.606  -2.157  22.317  0.00  0.00    +0.000 C 
ATOM     19  C   UNL     1      -9.552  -1.899  23.800  0.00  0.00    +0.000 C 
ATOM     20  C   UNL     1      -8.485  -0.833  23.903  0.00  0.00    +0.000 C 
ATOM     21  O   UNL     1      -7.562  -1.057  22.828  0.00  0.00    +0.000 OA
ATOM     22  H   UNL     1      -8.114  -1.520  20.889  0.00  0.00    +0.000 HD
ATOM     23  H   UNL     1     -10.035  -3.129  22.057  0.00  0.00    +0.000 HD
ATOM     24  H   UNL     1     -10.224  -1.385  21.842  0.00  0.00    +0.000 HD
ATOM     25  H   UNL     1      -9.231  -2.805  24.326  0.00  0.00    +0.000 HD
ATOM     26  H   UNL     1     -10.508  -1.580  24.224  0.00  0.00    +0.000 HD
ATOM     27  H   UNL     1      -7.948  -0.871  24.854  0.00  0.00    +0.000 HD
ATOM     28  H   UNL     1      -8.907   0.170  23.779  0.00  0.00    +0.000 HD
ENDBRANCH  14  17
ENDBRANCH   3  14
BRANCH   7  29
ATOM     29  N   UNL     1      -8.592  -6.449  16.827  0.00  0.00    +0.000 N 
ATOM     30  H   UNL     1      -9.150  -5.684  16.437  0.00  0.00    +0.000 HD
BRANCH  29  31
ATOM     31  C   UNL     1      -9.029  -7.821  16.515  0.00  0.00    +0.000 C 
ATOM     32  C   UNL     1      -8.703  -8.791  17.676  0.00  0.00    +0.000 C 
ATOM     33  C   UNL     1      -9.062 -10.234  17.285  0.00  0.00    +0.000 C 
ATOM     34  C   UNL     1     -10.579 -10.325  17.062  0.00  0.00    +0.000 C 
ATOM     35  C   UNL     1     -11.002  -9.345  15.953  0.00  0.00    +0.000 C 
ATOM     36  C   UNL     1     -10.305  -9.784  14.653  0.00  0.00    +0.000 C 
ATOM     37  C   UNL     1      -8.785  -9.705  14.829  0.00  0.00    +0.000 C 
ATOM     38  C   UNL     1      -8.327 -10.610  15.987  0.00  0.00    +0.000 C 
ATOM     39  C   UNL     1      -8.417  -8.260  15.158  0.00  0.00    +0.000 C 
ATOM     40  C   UNL     1     -10.574  -7.898  16.328  0.00  0.00    +0.000 C 
ATOM     41  H   UNL     1      -9.269  -8.502  18.574  0.00  0.00    +0.000 HD
ATOM     42  H   UNL     1      -7.654  -8.754  17.979  0.00  0.00    +0.000 HD
ATOM     43  H   UNL     1      -8.766 -10.918  18.088  0.00  0.00    +0.000 HD
ATOM     44  H   UNL     1     -11.115 -10.097  17.991  0.00  0.00    +0.000 HD
ATOM     45  H   UNL     1     -10.851 -11.351  16.783  0.00  0.00    +0.000 HD
ATOM     46  H   UNL     1     -12.088  -9.390  15.817  0.00  0.00    +0.000 HD
ATOM     47  H   UNL     1     -10.623  -9.141  13.821  0.00  0.00    +0.000 HD
ATOM     48  H   UNL     1     -10.594 -10.809  14.390  0.00  0.00    +0.000 HD
ATOM     49  H   UNL     1      -8.286 -10.006  13.902  0.00  0.00    +0.000 HD
ATOM     50  H   UNL     1      -7.243 -10.506  16.132  0.00  0.00    +0.000 HD
ATOM     51  H   UNL     1      -8.517 -11.657  15.736  0.00  0.00    +0.000 HD
ATOM     52  H   UNL     1      -8.774  -7.591  14.361  0.00  0.00    +0.000 HD
ATOM     53  H   UNL     1      -7.329  -8.181  15.133  0.00  0.00    +0.000 HD
ATOM     54  H   UNL     1     -11.090  -7.593  17.249  0.00  0.00    +0.000 HD
ATOM     55  H   UNL     1     -10.903  -7.201  15.546  0.00  0.00    +0.000 HD
ENDBRANCH  29  31
ENDBRANCH   7  29
TORSDOF 5
ENDMDL
MODEL 6
REMARK VINA RESULT:    -8.649      3.825      5.282
REMARK INTER + INTRA:         -11.255
REMARK INTER:                 -10.822
REMARK INTRA:                  -0.433
REMARK UNBOUND:                -0.330
REMARK  Name = 
REMARK  5 active torsions:
REMARK  status: ('A' for Active; 'I' for Inactive)
REMARK    1  A    between atoms: N_1  and  C_2
REMARK    2  A    between atoms: N_4  and  C_5
REMARK    3  A    between atoms: C_5  and  C_6
REMARK    4  A    between atoms: C_14  and  N_15
REMARK    5  A    between atoms: N_15  and  C_16
REMARK                            x       y       z     vdW  Elec       q    Type
REMARK                         _______ _______ _______ _____ _____    ______ ____
ROOT
ATOM      1  C   UNL     1     -10.397  -6.691  17.302  0.00  0.00    +0.000 A 
ATOM      2  C   UNL     1      -9.450  -7.654  17.721  0.00  0.00    +0.000 A 
ATOM      3  N   UNL     1      -9.325  -8.825  16.950  0.00  0.00    +0.000 N 
ATOM      4  N   UNL     1      -8.669  -7.475  18.795  0.00  0.00    +0.000 NA
ATOM      5  C   UNL     1      -8.837  -6.324  19.445  0.00  0.00    +0.000 A 
ATOM      6  N   UNL     1      -9.694  -5.365  19.102  0.00  0.00    +0.000 N 
ATOM      7  C   UNL     1     -10.505  -5.493  18.045  0.00  0.00    +0.000 A 
ATOM      8  H   UNL     1      -8.734  -8.626  16.147  0.00  0.00    +0.000 HD
ATOM      9  H   UNL     1      -8.230  -6.142  20.330  0.00  0.00    +0.000 HD
ATOM     10  H   UNL     1      -9.729  -4.530  19.666  0.00  0.00    +0.000 HD
ENDROOT
BRANCH   1  11
ATOM     11  N   UNL     1     -11.114  -6.890  16.089  0.00  0.00    +0.000 N 
ATOM     12  H   UNL     1     -11.656  -6.040  15.891  0.00  0.00    +0.000 HD
ATOM     13  H   UNL     1     -10.507  -7.119  15.306  0.00  0.00    +0.000 HD
ENDBRANCH   1  11
BRANCH   3  14
ATOM     14  C   UNL     1      -8.942 -10.051  17.669  0.00  0.00    +0.000 C 
ATOM     15  H   UNL     1      -9.224 -10.022  18.728  0.00  0.00    +0.000 HD
ATOM     16  H   UNL     1      -7.848 -10.124  17.632  0.00  0.00    +0.000 HD
BRANCH  14  17
ATOM     17  C   UNL     1      -9.542 -11.288  16.956  0.00  0.00    +0.000 C 
ATOM     18  C   UNL     1      -9.498 -11.189  15.436  0.00  0.00    +0.000 C 
ATOM     19  C   UNL     1      -8.207 -11.883  15.089  0.00  0.00    +0.000 C 
ATOM     20  C   UNL     1      -8.136 -12.972  16.134  0.00  0.00    +0.000 C 
ATOM     21  O   UNL     1      -8.792 -12.473  17.307  0.00  0.00    +0.000 OA
ATOM     22  H   UNL     1     -10.576 -11.427  17.294  0.00  0.00    +0.000 HD
ATOM     23  H   UNL     1      -9.563 -10.167  15.051  0.00  0.00    +0.000 HD
ATOM     24  H   UNL     1     -10.335 -11.757  15.011  0.00  0.00    +0.000 HD
ATOM     25  H   UNL     1      -7.366 -11.191  15.208  0.00  0.00    +0.000 HD
ATOM     26  H   UNL     1      -8.182 -12.276  14.069  0.00  0.00    +0.000 HD
ATOM     27  H   UNL     1      -7.107 -13.244  16.385  0.00  0.00    +0.000 HD
ATOM     28  H   UNL     1      -8.667 -13.874  15.811  0.00  0.00    +0.000 HD
ENDBRANCH  14  17
ENDBRANCH   3  14
BRANCH   7  29
ATOM     29  N   UNL     1     -11.493  -4.548  17.767  0.00  0.00    +0.000 N 
ATOM     30  H   UNL     1     -12.440  -4.937  17.763  0.00  0.00    +0.000 HD
BRANCH  29  31
ATOM     31  C   UNL     1     -11.288  -3.281  17.042  0.00  0.00    +0.000 C 
ATOM     32  C   UNL     1     -10.337  -2.339  17.820  0.00  0.00    +0.000 C 
ATOM     33  C   UNL     1     -10.228  -0.982  17.105  0.00  0.00    +0.000 C 
ATOM     34  C   UNL     1      -9.587  -1.197  15.726  0.00  0.00    +0.000 C 
ATOM     35  C   UNL     1     -10.444  -2.173  14.900  0.00  0.00    +0.000 C 
ATOM     36  C   UNL     1     -11.820  -1.518  14.685  0.00  0.00    +0.000 C 
ATOM     37  C   UNL     1     -12.499  -1.287  16.039  0.00  0.00    +0.000 C 
ATOM     38  C   UNL     1     -11.633  -0.381  16.932  0.00  0.00    +0.000 C 
ATOM     39  C   UNL     1     -12.666  -2.641  16.727  0.00  0.00    +0.000 C 
ATOM     40  C   UNL     1     -10.604  -3.519  15.663  0.00  0.00    +0.000 C 
ATOM     41  H   UNL     1      -9.340  -2.795  17.896  0.00  0.00    +0.000 HD
ATOM     42  H   UNL     1     -10.654  -2.174  18.852  0.00  0.00    +0.000 HD
ATOM     43  H   UNL     1      -9.606  -0.302  17.699  0.00  0.00    +0.000 HD
ATOM     44  H   UNL     1      -8.569  -1.590  15.836  0.00  0.00    +0.000 HD
ATOM     45  H   UNL     1      -9.501  -0.236  15.204  0.00  0.00    +0.000 HD
ATOM     46  H   UNL     1      -9.969  -2.348  13.928  0.00  0.00    +0.000 HD
ATOM     47  H   UNL     1     -12.447  -2.160  14.053  0.00  0.00    +0.000 HD
ATOM     48  H   UNL     1     -11.712  -0.562  14.159  0.00  0.00    +0.000 HD
ATOM     49  H   UNL     1     -13.484  -0.831  15.890  0.00  0.00    +0.000 HD
ATOM     50  H   UNL     1     -12.109  -0.263  17.915  0.00  0.00    +0.000 HD
ATOM     51  H   UNL     1     -11.564   0.617  16.489  0.00  0.00    +0.000 HD
ATOM     52  H   UNL     1     -13.247  -3.319  16.085  0.00  0.00    +0.000 HD
ATOM     53  H   UNL     1     -13.281  -2.488  17.615  0.00  0.00    +0.000 HD
ATOM     54  H   UNL     1      -9.617  -3.982  15.795  0.00  0.00    +0.000 HD
ATOM     55  H   UNL     1     -11.193  -4.219  15.056  0.00  0.00    +0.000 HD
ENDBRANCH  29  31
ENDBRANCH   7  29
TORSDOF 5
ENDMDL
MODEL 7
REMARK VINA RESULT:    -8.587      0.155      1.486
REMARK INTER + INTRA:         -11.176
REMARK INTER:                 -10.889
REMARK INTRA:                  -0.288
REMARK UNBOUND:                -0.330
REMARK  Name = 
REMARK  5 active torsions:
REMARK  status: ('A' for Active; 'I' for Inactive)
REMARK    1  A    between atoms: N_1  and  C_2
REMARK    2  A    between atoms: N_4  and  C_5
REMARK    3  A    between atoms: C_5  and  C_6
REMARK    4  A    between atoms: C_14  and  N_15
REMARK    5  A    between atoms: N_15  and  C_16
REMARK                            x       y       z     vdW  Elec       q    Type
REMARK                         _______ _______ _______ _____ _____    ______ ____
ROOT
ATOM      1  C   UNL     1      -8.520  -5.018  19.551  0.00  0.00    +0.000 A 
ATOM      2  C   UNL     1      -9.177  -5.851  18.616  0.00  0.00    +0.000 A 
ATOM      3  N   UNL     1      -8.638  -7.131  18.389  0.00  0.00    +0.000 N 
ATOM      4  N   UNL     1     -10.289  -5.471  17.971  0.00  0.00    +0.000 NA
ATOM      5  C   UNL     1     -10.742  -4.254  18.271  0.00  0.00    +0.000 A 
ATOM      6  N   UNL     1     -10.189  -3.422  19.151  0.00  0.00    +0.000 N 
ATOM      7  C   UNL     1      -9.074  -3.744  19.817  0.00  0.00    +0.000 A 
ATOM      8  H   UNL     1      -8.951  -7.754  19.130  0.00  0.00    +0.000 HD
ATOM      9  H   UNL     1     -11.637  -3.901  17.763  0.00  0.00    +0.000 HD
ATOM     10  H   UNL     1     -10.626  -2.526  19.302  0.00  0.00    +0.000 HD
ENDROOT
BRANCH   1  11
ATOM     11  N   UNL     1      -7.411  -5.523  20.286  0.00  0.00    +0.000 N 
ATOM     12  H   UNL     1      -6.622  -5.641  19.640  0.00  0.00    +0.000 HD
ATOM     13  H   UNL     1      -7.151  -4.924  21.066  0.00  0.00    +0.000 HD
ENDBRANCH   1  11
BRANCH   3  14
ATOM     14  C   UNL     1      -8.814  -7.693  17.041  0.00  0.00    +0.000 C 
ATOM     15  H   UNL     1      -7.862  -7.985  16.580  0.00  0.00    +0.000 HD
ATOM     16  H   UNL     1      -9.243  -6.904  16.411  0.00  0.00    +0.000 HD
BRANCH  14  17
ATOM     17  C   UNL     1      -9.808  -8.879  17.091  0.00  0.00    +0.000 C 
ATOM     18  C   UNL     1      -9.998  -9.564  15.744  0.00  0.00    +0.000 C 
ATOM     19  C   UNL     1      -8.992 -10.684  15.787  0.00  0.00    +0.000 C 
ATOM     20  C   UNL     1      -9.011 -11.077  17.247  0.00  0.00    +0.000 C 
ATOM     21  O   UNL     1      -9.319  -9.895  17.997  0.00  0.00    +0.000 OA
ATOM     22  H   UNL     1     -10.772  -8.520  17.470  0.00  0.00    +0.000 HD
ATOM     23  H   UNL     1      -9.878  -8.901  14.882  0.00  0.00    +0.000 HD
ATOM     24  H   UNL     1     -11.007  -9.992  15.694  0.00  0.00    +0.000 HD
ATOM     25  H   UNL     1      -8.000 -10.307  15.512  0.00  0.00    +0.000 HD
ATOM     26  H   UNL     1      -9.235 -11.518  15.123  0.00  0.00    +0.000 HD
ATOM     27  H   UNL     1      -8.051 -11.479  17.584  0.00  0.00    +0.000 HD
ATOM     28  H   UNL     1      -9.791 -11.818  17.452  0.00  0.00    +0.000 HD
ENDBRANCH  14  17
ENDBRANCH   3  14
BRANCH   7  29
ATOM     29  N   UNL     1      -8.422  -2.822  20.635  0.00  0.00    +0.000 N 
ATOM     30  H   UNL     1      -7.410  -2.785  20.484  0.00  0.00    +0.000 HD
BRANCH  29  31
ATOM     31  C   UNL     1      -8.923  -2.316  21.925  0.00  0.00    +0.000 C 
ATOM     32  C   UNL     1     -10.427  -1.955  21.840  0.00  0.00    +0.000 C 
ATOM     33  C   UNL     1     -10.900  -1.324  23.159  0.00  0.00    +0.000 C 
ATOM     34  C   UNL     1     -10.771  -2.365  24.282  0.00  0.00    +0.000 C 
ATOM     35  C   UNL     1      -9.307  -2.823  24.400  0.00  0.00    +0.000 C 
ATOM     36  C   UNL     1      -8.463  -1.597  24.792  0.00  0.00    +0.000 C 
ATOM     37  C   UNL     1      -8.561  -0.531  23.695  0.00  0.00    +0.000 C 
ATOM     38  C   UNL     1     -10.024  -0.103  23.486  0.00  0.00    +0.000 C 
ATOM     39  C   UNL     1      -8.033  -1.135  22.395  0.00  0.00    +0.000 C 
ATOM     40  C   UNL     1      -8.817  -3.399  23.041  0.00  0.00    +0.000 C 
ATOM     41  H   UNL     1     -11.016  -2.860  21.632  0.00  0.00    +0.000 HD
ATOM     42  H   UNL     1     -10.653  -1.274  21.017  0.00  0.00    +0.000 HD
ATOM     43  H   UNL     1     -11.947  -1.013  23.063  0.00  0.00    +0.000 HD
ATOM     44  H   UNL     1     -11.421  -3.225  24.081  0.00  0.00    +0.000 HD
ATOM     45  H   UNL     1     -11.107  -1.928  25.231  0.00  0.00    +0.000 HD
ATOM     46  H   UNL     1      -9.222  -3.588  25.181  0.00  0.00    +0.000 HD
ATOM     47  H   UNL     1      -7.417  -1.893  24.940  0.00  0.00    +0.000 HD
ATOM     48  H   UNL     1      -8.814  -1.180  25.744  0.00  0.00    +0.000 HD
ATOM     49  H   UNL     1      -7.954   0.339  23.966  0.00  0.00    +0.000 HD
ATOM     50  H   UNL     1     -10.084   0.625  22.665  0.00  0.00    +0.000 HD
ATOM     51  H   UNL     1     -10.395   0.398  24.384  0.00  0.00    +0.000 HD
ATOM     52  H   UNL     1      -7.001  -1.487  22.536  0.00  0.00    +0.000 HD
ATOM     53  H   UNL     1      -7.965  -0.331  21.661  0.00  0.00    +0.000 HD
ATOM     54  H   UNL     1      -9.416  -4.282  22.781  0.00  0.00    +0.000 HD
ATOM     55  H   UNL     1      -7.781  -3.749  23.140  0.00  0.00    +0.000 HD
ENDBRANCH  29  31
ENDBRANCH   7  29
TORSDOF 5
ENDMDL
MODEL 8
REMARK VINA RESULT:    -8.254      3.755      5.100
REMARK INTER + INTRA:         -10.756
REMARK INTER:                 -10.300
REMARK INTRA:                  -0.456
REMARK UNBOUND:                -0.330
REMARK  Name = 
REMARK  5 active torsions:
REMARK  status: ('A' for Active; 'I' for Inactive)
REMARK    1  A    between atoms: N_1  and  C_2
REMARK    2  A    between atoms: N_4  and  C_5
REMARK    3  A    between atoms: C_5  and  C_6
REMARK    4  A    between atoms: C_14  and  N_15
REMARK    5  A    between atoms: N_15  and  C_16
REMARK                            x       y       z     vdW  Elec       q    Type
REMARK                         _______ _______ _______ _____ _____    ______ ____
ROOT
ATOM      1  C   UNL     1     -11.259  -6.144  16.685  0.00  0.00    +0.000 A 
ATOM      2  C   UNL     1     -10.532  -7.345  16.858  0.00  0.00    +0.000 A 
ATOM      3  N   UNL     1     -10.532  -8.267  15.794  0.00  0.00    +0.000 N 
ATOM      4  N   UNL     1      -9.841  -7.613  17.974  0.00  0.00    +0.000 NA
ATOM      5  C   UNL     1      -9.876  -6.670  18.915  0.00  0.00    +0.000 A 
ATOM      6  N   UNL     1     -10.522  -5.510  18.818  0.00  0.00    +0.000 N 
ATOM      7  C   UNL     1     -11.236  -5.193  17.731  0.00  0.00    +0.000 A 
ATOM      8  H   UNL     1      -9.840  -7.973  15.108  0.00  0.00    +0.000 HD
ATOM      9  H   UNL     1      -9.336  -6.850  19.842  0.00  0.00    +0.000 HD
ATOM     10  H   UNL     1     -10.472  -4.867  19.593  0.00  0.00    +0.000 HD
ENDROOT
BRANCH   1  11
ATOM     11  N   UNL     1     -11.878  -5.870  15.433  0.00  0.00    +0.000 N 
ATOM     12  H   UNL     1     -12.820  -5.501  15.612  0.00  0.00    +0.000 HD
ATOM     13  H   UNL     1     -11.341  -5.220  14.863  0.00  0.00    +0.000 HD
ENDBRANCH   1  11
BRANCH   3  14
ATOM     14  C   UNL     1     -10.431  -9.690  16.154  0.00  0.00    +0.000 C 
ATOM     15  H   UNL     1     -11.067 -10.327  15.527  0.00  0.00    +0.000 HD
ATOM     16  H   UNL     1     -10.791  -9.794  17.184  0.00  0.00    +0.000 HD
BRANCH  14  17
ATOM     17  C   UNL     1      -8.950 -10.142  16.101  0.00  0.00    +0.000 C 
ATOM     18  C   UNL     1      -8.601 -11.186  17.153  0.00  0.00    +0.000 C 
ATOM     19  C   UNL     1      -8.800 -12.487  16.419  0.00  0.00    +0.000 C 
ATOM     20  C   UNL     1      -8.363 -12.133  15.015  0.00  0.00    +0.000 C 
ATOM     21  O   UNL     1      -8.662 -10.745  14.819  0.00  0.00    +0.000 OA
ATOM     22  H   UNL     1      -8.305  -9.262  16.216  0.00  0.00    +0.000 HD
ATOM     23  H   UNL     1      -9.187 -11.110  18.074  0.00  0.00    +0.000 HD
ATOM     24  H   UNL     1      -7.542 -11.088  17.425  0.00  0.00    +0.000 HD
ATOM     25  H   UNL     1      -9.860 -12.762  16.425  0.00  0.00    +0.000 HD
ATOM     26  H   UNL     1      -8.230 -13.319  16.840  0.00  0.00    +0.000 HD
ATOM     27  H   UNL     1      -8.882 -12.725  14.256  0.00  0.00    +0.000 HD
ATOM     28  H   UNL     1      -7.284 -12.266  14.885  0.00  0.00    +0.000 HD
ENDBRANCH  14  17
ENDBRANCH   3  14
BRANCH   7  29
ATOM     29  N   UNL     1     -12.020  -4.040  17.686  0.00  0.00    +0.000 N 
ATOM     30  H   UNL     1     -13.021  -4.230  17.589  0.00  0.00    +0.000 HD
BRANCH  29  31
ATOM     31  C   UNL     1     -11.553  -2.701  17.283  0.00  0.00    +0.000 C 
ATOM     32  C   UNL     1     -11.127  -1.863  18.514  0.00  0.00    +0.000 C 
ATOM     33  C   UNL     1     -10.753  -0.435  18.084  0.00  0.00    +0.000 C 
ATOM     34  C   UNL     1      -9.526  -0.500  17.162  0.00  0.00    +0.000 C 
ATOM     35  C   UNL     1      -9.846  -1.366  15.931  0.00  0.00    +0.000 C 
ATOM     36  C   UNL     1     -10.983  -0.676  15.157  0.00  0.00    +0.000 C 
ATOM     37  C   UNL     1     -12.232  -0.593  16.041  0.00  0.00    +0.000 C 
ATOM     38  C   UNL     1     -11.933   0.197  17.327  0.00  0.00    +0.000 C 
ATOM     39  C   UNL     1     -12.644  -2.014  16.419  0.00  0.00    +0.000 C 
ATOM     40  C   UNL     1     -10.287  -2.788  16.379  0.00  0.00    +0.000 C 
ATOM     41  H   UNL     1     -10.266  -2.336  19.007  0.00  0.00    +0.000 HD
ATOM     42  H   UNL     1     -11.902  -1.813  19.282  0.00  0.00    +0.000 HD
ATOM     43  H   UNL     1     -10.518   0.166  18.970  0.00  0.00    +0.000 HD
ATOM     44  H   UNL     1      -8.666  -0.913  17.702  0.00  0.00    +0.000 HD
ATOM     45  H   UNL     1      -9.246   0.514  16.848  0.00  0.00    +0.000 HD
ATOM     46  H   UNL     1      -8.959  -1.435  15.290  0.00  0.00    +0.000 HD
ATOM     47  H   UNL     1     -11.206  -1.235  14.239  0.00  0.00    +0.000 HD
ATOM     48  H   UNL     1     -10.681   0.333  14.850  0.00  0.00    +0.000 HD
ATOM     49  H   UNL     1     -13.048  -0.112  15.490  0.00  0.00    +0.000 HD
ATOM     50  H   UNL     1     -12.823   0.207  17.972  0.00  0.00    +0.000 HD
ATOM     51  H   UNL     1     -11.707   1.238  17.078  0.00  0.00    +0.000 HD
ATOM     52  H   UNL     1     -12.821  -2.609  15.512  0.00  0.00    +0.000 HD
ATOM     53  H   UNL     1     -13.612  -1.956  16.919  0.00  0.00    +0.000 HD
ATOM     54  H   UNL     1      -9.461  -3.274  16.916  0.00  0.00    +0.000 HD
ATOM     55  H   UNL     1     -10.486  -3.408  15.495  0.00  0.00    +0.000 HD
ENDBRANCH  29  31
ENDBRANCH   7  29
TORSDOF 5
ENDMDL
MODEL 9
REMARK VINA RESULT:    -8.150      2.998      8.562
REMARK INTER + INTRA:         -10.625
REMARK INTER:                 -10.138
REMARK INTRA:                  -0.486
REMARK UNBOUND:                -0.330
REMARK  Name = 
REMARK  5 active torsions:
REMARK  status: ('A' for Active; 'I' for Inactive)
REMARK    1  A    between atoms: N_1  and  C_2
REMARK    2  A    between atoms: N_4  and  C_5
REMARK    3  A    between atoms: C_5  and  C_6
REMARK    4  A    between atoms: C_14  and  N_15
REMARK    5  A    between atoms: N_15  and  C_16
REMARK                            x       y       z     vdW  Elec       q    Type
REMARK                         _______ _______ _______ _____ _____    ______ ____
ROOT
ATOM      1  C   UNL     1      -8.493  -3.320  20.732  0.00  0.00    +0.000 A 
ATOM      2  C   UNL     1      -8.049  -2.882  22.002  0.00  0.00    +0.000 A 
ATOM      3  N   UNL     1      -8.886  -2.008  22.721  0.00  0.00    +0.000 N 
ATOM      4  N   UNL     1      -6.889  -3.286  22.537  0.00  0.00    +0.000 NA
ATOM      5  C   UNL     1      -6.177  -4.135  21.796  0.00  0.00    +0.000 A 
ATOM      6  N   UNL     1      -6.536  -4.603  20.603  0.00  0.00    +0.000 N 
ATOM      7  C   UNL     1      -7.679  -4.228  20.017  0.00  0.00    +0.000 A 
ATOM      8  H   UNL     1      -9.607  -2.556  23.186  0.00  0.00    +0.000 HD
ATOM      9  H   UNL     1      -5.223  -4.481  22.188  0.00  0.00    +0.000 HD
ATOM     10  H   UNL     1      -5.919  -5.249  20.137  0.00  0.00    +0.000 HD
ENDROOT
BRANCH   1  11
ATOM     11  N   UNL     1      -9.785  -2.944  20.270  0.00  0.00    +0.000 N 
ATOM     12  H   UNL     1     -10.457  -3.660  20.572  0.00  0.00    +0.000 HD
ATOM     13  H   UNL     1     -10.069  -2.024  20.599  0.00  0.00    +0.000 HD
ENDBRANCH   1  11
BRANCH   3  14
ATOM     14  C   UNL     1      -8.224  -1.040  23.608  0.00  0.00    +0.000 C 
ATOM     15  H   UNL     1      -7.452  -0.456  23.091  0.00  0.00    +0.000 HD
ATOM     16  H   UNL     1      -7.718  -1.610  24.397  0.00  0.00    +0.000 HD
BRANCH  14  17
ATOM     17  C   UNL     1      -9.283  -0.121  24.267  0.00  0.00    +0.000 C 
ATOM     18  C   UNL     1      -8.817   0.490  25.582  0.00  0.00    +0.000 C 
ATOM     19  C   UNL     1      -8.244   1.817  25.156  0.00  0.00    +0.000 C 
ATOM     20  C   UNL     1      -9.149   2.204  24.009  0.00  0.00    +0.000 C 
ATOM     21  O   UNL     1      -9.589   0.988  23.390  0.00  0.00    +0.000 OA
ATOM     22  H   UNL     1     -10.204  -0.695  24.424  0.00  0.00    +0.000 HD
ATOM     23  H   UNL     1      -8.111  -0.131  26.141  0.00  0.00    +0.000 HD
ATOM     24  H   UNL     1      -9.686   0.668  26.228  0.00  0.00    +0.000 HD
ATOM     25  H   UNL     1      -7.217   1.682  24.796  0.00  0.00    +0.000 HD
ATOM     26  H   UNL     1      -8.230   2.565  25.953  0.00  0.00    +0.000 HD
ATOM     27  H   UNL     1      -8.639   2.823  23.265  0.00  0.00    +0.000 HD
ATOM     28  H   UNL     1     -10.036   2.741  24.362  0.00  0.00    +0.000 HD
ENDBRANCH  14  17
ENDBRANCH   3  14
BRANCH   7  29
ATOM     29  N   UNL     1      -7.989  -4.613  18.712  0.00  0.00    +0.000 N 
ATOM     30  H   UNL     1      -7.993  -3.835  18.046  0.00  0.00    +0.000 HD
BRANCH  29  31
ATOM     31  C   UNL     1      -8.740  -5.822  18.331  0.00  0.00    +0.000 C 
ATOM     32  C   UNL     1      -7.985  -6.635  17.251  0.00  0.00    +0.000 C 
ATOM     33  C   UNL     1      -8.836  -7.827  16.786  0.00  0.00    +0.000 C 
ATOM     34  C   UNL     1      -9.046  -8.780  17.973  0.00  0.00    +0.000 C 
ATOM     35  C   UNL     1      -9.746  -8.033  19.122  0.00  0.00    +0.000 C 
ATOM     36  C   UNL     1     -11.132  -7.595  18.617  0.00  0.00    +0.000 C 
ATOM     37  C   UNL     1     -10.971  -6.637  17.432  0.00  0.00    +0.000 C 
ATOM     38  C   UNL     1     -10.199  -7.319  16.287  0.00  0.00    +0.000 C 
ATOM     39  C   UNL     1     -10.177  -5.421  17.905  0.00  0.00    +0.000 C 
ATOM     40  C   UNL     1      -8.910  -6.791  19.540  0.00  0.00    +0.000 C 
ATOM     41  H   UNL     1      -7.031  -7.000  17.659  0.00  0.00    +0.000 HD
ATOM     42  H   UNL     1      -7.709  -6.033  16.383  0.00  0.00    +0.000 HD
ATOM     43  H   UNL     1      -8.320  -8.355  15.977  0.00  0.00    +0.000 HD
ATOM     44  H   UNL     1      -8.084  -9.180  18.315  0.00  0.00    +0.000 HD
ATOM     45  H   UNL     1      -9.652  -9.638  17.656  0.00  0.00    +0.000 HD
ATOM     46  H   UNL     1      -9.868  -8.707  19.978  0.00  0.00    +0.000 HD
ATOM     47  H   UNL     1     -11.689  -7.104  19.426  0.00  0.00    +0.000 HD
ATOM     48  H   UNL     1     -11.722  -8.467  18.309  0.00  0.00    +0.000 HD
ATOM     49  H   UNL     1     -11.955  -6.314  17.076  0.00  0.00    +0.000 HD
ATOM     50  H   UNL     1     -10.049  -6.606  15.464  0.00  0.00    +0.000 HD
ATOM     51  H   UNL     1     -10.788  -8.149  15.887  0.00  0.00    +0.000 HD
ATOM     52  H   UNL     1     -10.691  -4.944  18.752  0.00  0.00    +0.000 HD
ATOM     53  H   UNL     1     -10.196  -4.681  17.104  0.00  0.00    +0.000 HD
ATOM     54  H   UNL     1      -7.930  -7.120  19.912  0.00  0.00    +0.000 HD
ATOM     55  H   UNL     1      -9.401  -6.279  20.378  0.00  0.00    +0.000 HD
ENDBRANCH  29  31
ENDBRANCH   7  29
TORSDOF 5
ENDMDL
