MODEL 1
REMARK VINA RESULT:    -7.615      0.000      0.000
REMARK INTER + INTRA:         -10.690
REMARK INTER:                 -10.064
REMARK INTRA:                  -0.626
REMARK UNBOUND:                -0.626
REMARK  Name = 
REMARK  7 active torsions:
REMARK  status: ('A' for Active; 'I' for Inactive)
REMARK    1  A    between atoms: C_1  and  C_2
REMARK    2  A    between atoms: C_2  and  C_3
REMARK    3  A    between atoms: C_3  and  S_4
REMARK    4  A    between atoms: S_4  and  C_5
REMARK    5  A    between atoms: C_18  and  C_19
REMARK    6  A    between atoms: C_18  and  C_20
REMARK    7  A    between atoms: C_22  and  C_23
REMARK                            x       y       z     vdW  Elec       q    Type
REMARK                         _______ _______ _______ _____ _____    ______ ____
ROOT
ATOM      1  C   UNL     1      -8.908  -7.189  19.433  0.00  0.00    +0.000 A 
ATOM      2  N   UNL     1      -8.228  -6.403  20.191  0.00  0.00    +0.000 NA
ATOM      3  C   UNL     1      -8.203  -5.064  19.866  0.00  0.00    +0.000 A 
ATOM      4  O   UNL     1      -7.436  -4.274  20.401  0.00  0.00    +0.000 OA
ATOM      5  C   UNL     1      -9.156  -4.578  18.821  0.00  0.00    +0.000 A 
ATOM      6  C   UNL     1      -9.816  -5.477  18.062  0.00  0.00    +0.000 A 
ATOM      7  N   UNL     1      -9.636  -6.799  18.352  0.00  0.00    +0.000 N 
ATOM      8  N   UNL     1     -10.636  -5.030  17.042  0.00  0.00    +0.000 N 
ATOM      9  C   UNL     1     -10.702  -3.703  16.631  0.00  0.00    +0.000 C 
ATOM     10  C   UNL     1     -10.035  -2.757  17.324  0.00  0.00    +0.000 C 
ATOM     11  C   UNL     1      -9.994  -1.350  16.836  0.00  0.00    +0.000 C 
ATOM     12  O   UNL     1      -9.382  -0.482  17.453  0.00  0.00    +0.000 OA
ATOM     13  C   UNL     1     -10.627  -1.042  15.502  0.00  0.00    +0.000 C 
ATOM     14  C   UNL     1     -11.881  -1.887  15.242  0.00  0.00    +0.000 C 
ATOM     15  C   UNL     1     -11.538  -3.388  15.406  0.00  0.00    +0.000 C 
ATOM     16  C   UNL     1      -9.276  -3.084  18.604  0.00  0.00    +0.000 C 
ATOM     17  H   UNL     1     -10.177  -7.491  17.857  0.00  0.00    +0.000 HD
ATOM     18  H   UNL     1     -11.018  -5.730  16.415  0.00  0.00    +0.000 HD
ATOM     19  H   UNL     1      -9.862  -1.228  14.737  0.00  0.00    +0.000 HD
ATOM     20  H   UNL     1     -10.873   0.026  15.475  0.00  0.00    +0.000 HD
ATOM     21  H   UNL     1     -10.990  -3.747  14.526  0.00  0.00    +0.000 HD
ATOM     22  H   UNL     1     -12.472  -3.964  15.450  0.00  0.00    +0.000 HD
ATOM     23  H   UNL     1      -8.256  -2.695  18.474  0.00  0.00    +0.000 HD
ENDROOT
BRANCH  16  24
ATOM     24  C   UNL     1      -9.944  -2.393  19.790  0.00  0.00    +0.000 A 
ATOM     25  C   UNL     1     -11.324  -2.472  20.016  0.00  0.00    +0.000 A 
ATOM     26  C   UNL     1     -11.873  -1.730  21.049  0.00  0.00    +0.000 A 
ATOM     27  N   UNL     1     -11.154  -0.932  21.867  0.00  0.00    +0.000 NA
ATOM     28  C   UNL     1      -9.822  -0.881  21.644  0.00  0.00    +0.000 A 
ATOM     29  C   UNL     1      -9.181  -1.589  20.642  0.00  0.00    +0.000 A 
ATOM     30  H   UNL     1     -11.971  -3.074  19.385  0.00  0.00    +0.000 HD
ATOM     31  H   UNL     1     -12.940  -1.746  21.243  0.00  0.00    +0.000 HD
ATOM     32  H   UNL     1      -9.264  -0.223  22.302  0.00  0.00    +0.000 HD
ATOM     33  H   UNL     1      -8.108  -1.486  20.508  0.00  0.00    +0.000 HD
ENDBRANCH  16  24
BRANCH  14  34
ATOM     34  C   UNL     1     -13.016  -1.471  16.203  0.00  0.00    +0.000 C 
ATOM     35  H   UNL     1     -13.525  -2.353  16.622  0.00  0.00    +0.000 HD
ATOM     36  H   UNL     1     -13.777  -0.856  15.712  0.00  0.00    +0.000 HD
ATOM     37  H   UNL     1     -12.623  -0.893  17.047  0.00  0.00    +0.000 HD
ENDBRANCH  14  34
BRANCH  14  38
ATOM     38  C   UNL     1     -12.357  -1.615  13.803  0.00  0.00    +0.000 C 
ATOM     39  H   UNL     1     -12.370  -2.540  13.214  0.00  0.00    +0.000 HD
ATOM     40  H   UNL     1     -11.701  -0.902  13.293  0.00  0.00    +0.000 HD
ATOM     41  H   UNL     1     -13.373  -1.206  13.792  0.00  0.00    +0.000 HD
ENDBRANCH  14  38
BRANCH   1  42
ATOM     42  S   UNL     1      -8.947  -8.900  19.779  0.00  0.00    +0.000 S 
BRANCH  42  43
ATOM     43  C   UNL     1      -9.159  -9.521  18.082  0.00  0.00    +0.000 C 
ATOM     44  H   UNL     1     -10.192  -9.368  17.753  0.00  0.00    +0.000 HD
ATOM     45  H   UNL     1      -8.500  -8.948  17.421  0.00  0.00    +0.000 HD
BRANCH  43  46
ATOM     46  C   UNL     1      -8.805 -11.005  18.022  0.00  0.00    +0.000 C 
ATOM     47  H   UNL     1      -7.842 -11.190  18.512  0.00  0.00    +0.000 HD
ATOM     48  H   UNL     1      -9.562 -11.596  18.550  0.00  0.00    +0.000 HD
BRANCH  46  49
ATOM     49  C   UNL     1      -8.717 -11.496  16.583  0.00  0.00    +0.000 C 
ATOM     50  H   UNL     1      -8.785 -10.651  15.891  0.00  0.00    +0.000 HD
ATOM     51  H   UNL     1      -9.535 -12.187  16.354  0.00  0.00    +0.000 HD
ATOM     52  H   UNL     1      -7.769 -12.011  16.400  0.00  0.00    +0.000 HD
ENDBRANCH  46  49
ENDBRANCH  43  46
ENDBRANCH  42  43
ENDBRANCH   1  42
TORSDOF 7
ENDMDL
MODEL 2
REMARK VINA RESULT:    -7.300      3.113      4.299
REMARK INTER + INTRA:         -10.273
REMARK INTER:                  -9.622
REMARK INTRA:                  -0.651
REMARK UNBOUND:                -0.626
REMARK  Name = 
REMARK  7 active torsions:
REMARK  status: ('A' for Active; 'I' for Inactive)
REMARK    1  A    between atoms: C_1  and  C_2
REMARK    2  A    between atoms: C_2  and  C_3
REMARK    3  A    between atoms: C_3  and  S_4
REMARK    4  A    between atoms: S_4  and  C_5
REMARK    5  A    between atoms: C_18  and  C_19
REMARK    6  A    between atoms: C_18  and  C_20
REMARK    7  A    between atoms: C_22  and  C_23
REMARK                            x       y       z     vdW  Elec       q    Type
REMARK                         _______ _______ _______ _____ _____    ______ ____
ROOT
ATOM      1  C   UNL     1      -8.044  -4.778  19.625  0.00  0.00    +0.000 A 
ATOM      2  N   UNL     1      -7.273  -4.561  20.633  0.00  0.00    +0.000 NA
ATOM      3  C   UNL     1      -7.439  -3.377  21.321  0.00  0.00    +0.000 A 
ATOM      4  O   UNL     1      -6.636  -2.991  22.161  0.00  0.00    +0.000 OA
ATOM      5  C   UNL     1      -8.647  -2.552  21.017  0.00  0.00    +0.000 A 
ATOM      6  C   UNL     1      -9.389  -2.846  19.929  0.00  0.00    +0.000 A 
ATOM      7  N   UNL     1      -9.035  -3.948  19.204  0.00  0.00    +0.000 N 
ATOM      8  N   UNL     1     -10.460  -2.036  19.601  0.00  0.00    +0.000 N 
ATOM      9  C   UNL     1     -10.733  -0.825  20.230  0.00  0.00    +0.000 C 
ATOM     10  C   UNL     1     -10.004  -0.452  21.302  0.00  0.00    +0.000 C 
ATOM     11  C   UNL     1     -10.197   0.890  21.918  0.00  0.00    +0.000 C 
ATOM     12  O   UNL     1      -9.533   1.244  22.888  0.00  0.00    +0.000 OA
ATOM     13  C   UNL     1     -11.150   1.849  21.248  0.00  0.00    +0.000 C 
ATOM     14  C   UNL     1     -12.354   1.133  20.622  0.00  0.00    +0.000 C 
ATOM     15  C   UNL     1     -11.856   0.022  19.666  0.00  0.00    +0.000 C 
ATOM     16  C   UNL     1      -8.941  -1.361  21.905  0.00  0.00    +0.000 C 
ATOM     17  H   UNL     1      -9.617  -4.240  18.434  0.00  0.00    +0.000 HD
ATOM     18  H   UNL     1     -10.919  -2.211  18.713  0.00  0.00    +0.000 HD
ATOM     19  H   UNL     1     -10.573   2.388  20.486  0.00  0.00    +0.000 HD
ATOM     20  H   UNL     1     -11.485   2.579  21.994  0.00  0.00    +0.000 HD
ATOM     21  H   UNL     1     -11.502   0.464  18.725  0.00  0.00    +0.000 HD
ATOM     22  H   UNL     1     -12.702  -0.629  19.405  0.00  0.00    +0.000 HD
ATOM     23  H   UNL     1      -8.017  -0.769  21.965  0.00  0.00    +0.000 HD
ENDROOT
BRANCH  16  24
ATOM     24  C   UNL     1      -9.367  -1.794  23.306  0.00  0.00    +0.000 A 
ATOM     25  C   UNL     1     -10.594  -2.425  23.548  0.00  0.00    +0.000 A 
ATOM     26  C   UNL     1     -10.959  -2.690  24.858  0.00  0.00    +0.000 A 
ATOM     27  N   UNL     1     -10.197  -2.381  25.928  0.00  0.00    +0.000 NA
ATOM     28  C   UNL     1      -9.011  -1.787  25.674  0.00  0.00    +0.000 A 
ATOM     29  C   UNL     1      -8.555  -1.488  24.402  0.00  0.00    +0.000 A 
ATOM     30  H   UNL     1     -11.271  -2.684  22.739  0.00  0.00    +0.000 HD
ATOM     31  H   UNL     1     -11.910  -3.158  25.089  0.00  0.00    +0.000 HD
ATOM     32  H   UNL     1      -8.419  -1.533  26.549  0.00  0.00    +0.000 HD
ATOM     33  H   UNL     1      -7.597  -0.991  24.273  0.00  0.00    +0.000 HD
ENDBRANCH  16  24
BRANCH  14  34
ATOM     34  C   UNL     1     -13.262   0.547  21.725  0.00  0.00    +0.000 C 
ATOM     35  H   UNL     1     -14.309   0.489  21.389  0.00  0.00    +0.000 HD
ATOM     36  H   UNL     1     -13.246   1.145  22.642  0.00  0.00    +0.000 HD
ATOM     37  H   UNL     1     -12.950  -0.469  21.992  0.00  0.00    +0.000 HD
ENDBRANCH  14  34
BRANCH  14  38
ATOM     38  C   UNL     1     -13.175   2.170  19.834  0.00  0.00    +0.000 C 
ATOM     39  H   UNL     1     -13.623   2.910  20.508  0.00  0.00    +0.000 HD
ATOM     40  H   UNL     1     -13.987   1.694  19.273  0.00  0.00    +0.000 HD
ATOM     41  H   UNL     1     -12.547   2.715  19.121  0.00  0.00    +0.000 HD
ENDBRANCH  14  38
BRANCH   1  42
ATOM     42  S   UNL     1      -7.855  -6.245  18.698  0.00  0.00    +0.000 S 
BRANCH  42  43
ATOM     43  C   UNL     1      -9.076  -7.279  19.565  0.00  0.00    +0.000 C 
ATOM     44  H   UNL     1      -8.974  -7.153  20.648  0.00  0.00    +0.000 HD
ATOM     45  H   UNL     1     -10.078  -6.945  19.274  0.00  0.00    +0.000 HD
BRANCH  43  46
ATOM     46  C   UNL     1      -8.879  -8.745  19.188  0.00  0.00    +0.000 C 
ATOM     47  H   UNL     1      -9.811  -9.169  18.793  0.00  0.00    +0.000 HD
ATOM     48  H   UNL     1      -8.118  -8.836  18.405  0.00  0.00    +0.000 HD
BRANCH  46  49
ATOM     49  C   UNL     1      -8.445  -9.573  20.390  0.00  0.00    +0.000 C 
ATOM     50  H   UNL     1      -7.457  -9.252  20.733  0.00  0.00    +0.000 HD
ATOM     51  H   UNL     1      -8.386 -10.636  20.133  0.00  0.00    +0.000 HD
ATOM     52  H   UNL     1      -9.147  -9.458  21.222  0.00  0.00    +0.000 HD
ENDBRANCH  46  49
ENDBRANCH  43  46
ENDBRANCH  42  43
ENDBRANCH   1  42
TORSDOF 7
ENDMDL
MODEL 3
REMARK VINA RESULT:    -7.205      1.588      1.947
REMARK INTER + INTRA:         -10.147
REMARK INTER:                  -9.504
REMARK INTRA:                  -0.643
REMARK UNBOUND:                -0.626
REMARK  Name = 
REMARK  7 active torsions:
REMARK  status: ('A' for Active; 'I' for Inactive)
REMARK    1  A    between atoms: C_1  and  C_2
REMARK    2  A    between atoms: C_2  and  C_3
REMARK    3  A    between atoms: C_3  and  S_4
REMARK    4  A    between atoms: S_4  and  C_5
REMARK    5  A    between atoms: C_18  and  C_19
REMARK    6  A    between atoms: C_18  and  C_20
REMARK    7  A    between atoms: C_22  and  C_23
REMARK                            x       y       z     vdW  Elec       q    Type
REMARK                         _______ _______ _______ _____ _____    ______ ____
ROOT
ATOM      1  C   UNL     1     -10.351  -7.698  16.681  0.00  0.00    +0.000 A 
ATOM      2  N   UNL     1      -9.533  -7.320  17.598  0.00  0.00    +0.000 NA
ATOM      3  C   UNL     1      -9.262  -5.971  17.698  0.00  0.00    +0.000 A 
ATOM      4  O   UNL     1      -8.359  -5.535  18.398  0.00  0.00    +0.000 OA
ATOM      5  C   UNL     1     -10.116  -5.025  16.916  0.00  0.00    +0.000 A 
ATOM      6  C   UNL     1     -10.936  -5.513  15.962  0.00  0.00    +0.000 A 
ATOM      7  N   UNL     1     -11.002  -6.869  15.821  0.00  0.00    +0.000 N 
ATOM      8  N   UNL     1     -11.667  -4.634  15.184  0.00  0.00    +0.000 N 
ATOM      9  C   UNL     1     -11.489  -3.254  15.204  0.00  0.00    +0.000 C 
ATOM     10  C   UNL     1     -10.654  -2.703  16.109  0.00  0.00    +0.000 C 
ATOM     11  C   UNL     1     -10.357  -1.245  16.073  0.00  0.00    +0.000 C 
ATOM     12  O   UNL     1      -9.590  -0.733  16.886  0.00  0.00    +0.000 OA
ATOM     13  C   UNL     1     -10.931  -0.430  14.941  0.00  0.00    +0.000 C 
ATOM     14  C   UNL     1     -12.322  -0.919  14.517  0.00  0.00    +0.000 C 
ATOM     15  C   UNL     1     -12.261  -2.432  14.191  0.00  0.00    +0.000 C 
ATOM     16  C   UNL     1      -9.960  -3.541  17.175  0.00  0.00    +0.000 C 
ATOM     17  H   UNL     1     -11.665  -7.267  15.173  0.00  0.00    +0.000 HD
ATOM     18  H   UNL     1     -12.176  -5.025  14.398  0.00  0.00    +0.000 HD
ATOM     19  H   UNL     1     -10.220  -0.497  14.109  0.00  0.00    +0.000 HD
ATOM     20  H   UNL     1     -10.976   0.619  15.260  0.00  0.00    +0.000 HD
ATOM     21  H   UNL     1     -11.795  -2.587  13.209  0.00  0.00    +0.000 HD
ATOM     22  H   UNL     1     -13.285  -2.822  14.116  0.00  0.00    +0.000 HD
ATOM     23  H   UNL     1      -8.886  -3.314  17.105  0.00  0.00    +0.000 HD
ENDROOT
BRANCH  16  24
ATOM     24  C   UNL     1     -10.480  -3.152  18.557  0.00  0.00    +0.000 A 
ATOM     25  C   UNL     1     -11.832  -3.272  18.903  0.00  0.00    +0.000 A 
ATOM     26  C   UNL     1     -12.247  -2.797  20.136  0.00  0.00    +0.000 A 
ATOM     27  N   UNL     1     -11.423  -2.225  21.039  0.00  0.00    +0.000 NA
ATOM     28  C   UNL     1     -10.120  -2.132  20.693  0.00  0.00    +0.000 A 
ATOM     29  C   UNL     1      -9.608  -2.583  19.489  0.00  0.00    +0.000 A 
ATOM     30  H   UNL     1     -12.559  -3.701  18.220  0.00  0.00    +0.000 HD
ATOM     31  H   UNL     1     -13.290  -2.852  20.434  0.00  0.00    +0.000 HD
ATOM     32  H   UNL     1      -9.476  -1.656  21.426  0.00  0.00    +0.000 HD
ATOM     33  H   UNL     1      -8.551  -2.458  19.270  0.00  0.00    +0.000 HD
ENDBRANCH  16  24
BRANCH  14  34
ATOM     34  C   UNL     1     -13.353  -0.635  15.631  0.00  0.00    +0.000 C 
ATOM     35  H   UNL     1     -13.381  -1.455  16.365  0.00  0.00    +0.000 HD
ATOM     36  H   UNL     1     -14.369  -0.512  15.240  0.00  0.00    +0.000 HD
ATOM     37  H   UNL     1     -13.100   0.281  16.176  0.00  0.00    +0.000 HD
ENDBRANCH  14  34
BRANCH  14  38
ATOM     38  C   UNL     1     -12.749  -0.133  13.265  0.00  0.00    +0.000 C 
ATOM     39  H   UNL     1     -11.895   0.040  12.600  0.00  0.00    +0.000 HD
ATOM     40  H   UNL     1     -13.171   0.842  13.529  0.00  0.00    +0.000 HD
ATOM     41  H   UNL     1     -13.504  -0.682  12.690  0.00  0.00    +0.000 HD
ENDBRANCH  14  38
BRANCH   1  42
ATOM     42  S   UNL     1     -10.703  -9.397  16.488  0.00  0.00    +0.000 S 
BRANCH  42  43
ATOM     43  C   UNL     1      -9.199 -10.079  17.255  0.00  0.00    +0.000 C 
ATOM     44  H   UNL     1      -8.336  -9.451  17.013  0.00  0.00    +0.000 HD
ATOM     45  H   UNL     1      -9.334 -10.072  18.342  0.00  0.00    +0.000 HD
BRANCH  43  46
ATOM     46  C   UNL     1      -8.965 -11.505  16.763  0.00  0.00    +0.000 C 
ATOM     47  H   UNL     1      -8.189 -11.996  17.364  0.00  0.00    +0.000 HD
ATOM     48  H   UNL     1      -9.882 -12.096  16.864  0.00  0.00    +0.000 HD
BRANCH  46  49
ATOM     49  C   UNL     1      -8.529 -11.524  15.305  0.00  0.00    +0.000 C 
ATOM     50  H   UNL     1      -8.121 -10.549  15.020  0.00  0.00    +0.000 HD
ATOM     51  H   UNL     1      -9.376 -11.742  14.645  0.00  0.00    +0.000 HD
ATOM     52  H   UNL     1      -7.755 -12.279  15.134  0.00  0.00    +0.000 HD
ENDBRANCH  46  49
ENDBRANCH  43  46
ENDBRANCH  42  43
ENDBRANCH   1  42
TORSDOF 7
ENDMDL
MODEL 4
REMARK VINA RESULT:    -7.200      2.810      4.069
REMARK INTER + INTRA:         -10.141
REMARK INTER:                  -9.501
REMARK INTRA:                  -0.640
REMARK UNBOUND:                -0.626
REMARK  Name = 
REMARK  7 active torsions:
REMARK  status: ('A' for Active; 'I' for Inactive)
REMARK    1  A    between atoms: C_1  and  C_2
REMARK    2  A    between atoms: C_2  and  C_3
REMARK    3  A    between atoms: C_3  and  S_4
REMARK    4  A    between atoms: S_4  and  C_5
REMARK    5  A    between atoms: C_18  and  C_19
REMARK    6  A    between atoms: C_18  and  C_20
REMARK    7  A    between atoms: C_22  and  C_23
REMARK                            x       y       z     vdW  Elec       q    Type
REMARK                         _______ _______ _______ _____ _____    ______ ____
ROOT
ATOM      1  C   UNL     1     -11.114  -5.937  17.097  0.00  0.00    +0.000 A 
ATOM      2  N   UNL     1     -10.625  -4.967  17.787  0.00  0.00    +0.000 NA
ATOM      3  C   UNL     1     -10.354  -3.787  17.128  0.00  0.00    +0.000 A 
ATOM      4  O   UNL     1      -9.712  -2.881  17.644  0.00  0.00    +0.000 OA
ATOM      5  C   UNL     1     -10.872  -3.626  15.735  0.00  0.00    +0.000 A 
ATOM      6  C   UNL     1     -11.354  -4.704  15.082  0.00  0.00    +0.000 A 
ATOM      7  N   UNL     1     -11.419  -5.881  15.772  0.00  0.00    +0.000 N 
ATOM      8  N   UNL     1     -11.759  -4.574  13.767  0.00  0.00    +0.000 N 
ATOM      9  C   UNL     1     -11.548  -3.431  13.004  0.00  0.00    +0.000 C 
ATOM     10  C   UNL     1     -11.033  -2.328  13.585  0.00  0.00    +0.000 C 
ATOM     11  C   UNL     1     -10.688  -1.132  12.767  0.00  0.00    +0.000 C 
ATOM     12  O   UNL     1     -10.211  -0.125  13.284  0.00  0.00    +0.000 OA
ATOM     13  C   UNL     1     -10.833  -1.231  11.268  0.00  0.00    +0.000 C 
ATOM     14  C   UNL     1     -12.027  -2.102  10.854  0.00  0.00    +0.000 C 
ATOM     15  C   UNL     1     -11.918  -3.488  11.535  0.00  0.00    +0.000 C 
ATOM     16  C   UNL     1     -10.755  -2.264  15.082  0.00  0.00    +0.000 C 
ATOM     17  H   UNL     1     -11.849  -6.684  15.340  0.00  0.00    +0.000 HD
ATOM     18  H   UNL     1     -11.998  -5.426  13.270  0.00  0.00    +0.000 HD
ATOM     19  H   UNL     1      -9.893  -1.646  10.885  0.00  0.00    +0.000 HD
ATOM     20  H   UNL     1     -10.942  -0.217  10.865  0.00  0.00    +0.000 HD
ATOM     21  H   UNL     1     -11.164  -4.101  11.024  0.00  0.00    +0.000 HD
ATOM     22  H   UNL     1     -12.875  -4.015  11.425  0.00  0.00    +0.000 HD
ATOM     23  H   UNL     1      -9.710  -1.942  15.195  0.00  0.00    +0.000 HD
ENDROOT
BRANCH  16  24
ATOM     24  C   UNL     1     -11.682  -1.244  15.737  0.00  0.00    +0.000 A 
ATOM     25  C   UNL     1     -13.064  -1.239  15.507  0.00  0.00    +0.000 A 
ATOM     26  C   UNL     1     -13.825  -0.217  16.048  0.00  0.00    +0.000 A 
ATOM     27  N   UNL     1     -13.317   0.784  16.798  0.00  0.00    +0.000 NA
ATOM     28  C   UNL     1     -11.985   0.755  17.021  0.00  0.00    +0.000 A 
ATOM     29  C   UNL     1     -11.142  -0.227  16.530  0.00  0.00    +0.000 A 
ATOM     30  H   UNL     1     -13.542  -1.998  14.895  0.00  0.00    +0.000 HD
ATOM     31  H   UNL     1     -14.895  -0.165  15.876  0.00  0.00    +0.000 HD
ATOM     32  H   UNL     1     -11.593   1.576  17.614  0.00  0.00    +0.000 HD
ATOM     33  H   UNL     1     -10.076  -0.177  16.734  0.00  0.00    +0.000 HD
ENDBRANCH  16  24
BRANCH  14  34
ATOM     34  C   UNL     1     -13.354  -1.406  11.227  0.00  0.00    +0.000 C 
ATOM     35  H   UNL     1     -13.526  -0.516  10.602  0.00  0.00    +0.000 HD
ATOM     36  H   UNL     1     -13.376  -1.080  12.273  0.00  0.00    +0.000 HD
ATOM     37  H   UNL     1     -14.206  -2.078  11.076  0.00  0.00    +0.000 HD
ENDBRANCH  14  34
BRANCH  14  38
ATOM     38  C   UNL     1     -11.994  -2.269   9.324  0.00  0.00    +0.000 C 
ATOM     39  H   UNL     1     -11.573  -3.242   9.044  0.00  0.00    +0.000 HD
ATOM     40  H   UNL     1     -11.386  -1.492   8.850  0.00  0.00    +0.000 HD
ATOM     41  H   UNL     1     -13.003  -2.215   8.898  0.00  0.00    +0.000 HD
ENDBRANCH  14  38
BRANCH   1  42
ATOM     42  S   UNL     1     -11.445  -7.465  17.874  0.00  0.00    +0.000 S 
BRANCH  42  43
ATOM     43  C   UNL     1      -9.949  -8.366  17.360  0.00  0.00    +0.000 C 
ATOM     44  H   UNL     1      -9.271  -7.694  16.824  0.00  0.00    +0.000 HD
ATOM     45  H   UNL     1      -9.437  -8.724  18.259  0.00  0.00    +0.000 HD
BRANCH  43  46
ATOM     46  C   UNL     1     -10.332  -9.544  16.467  0.00  0.00    +0.000 C 
ATOM     47  H   UNL     1     -11.409  -9.740  16.530  0.00  0.00    +0.000 HD
ATOM     48  H   UNL     1     -10.099  -9.317  15.421  0.00  0.00    +0.000 HD
BRANCH  46  49
ATOM     49  C   UNL     1      -9.587 -10.810  16.870  0.00  0.00    +0.000 C 
ATOM     50  H   UNL     1      -8.509 -10.623  16.891  0.00  0.00    +0.000 HD
ATOM     51  H   UNL     1      -9.777 -11.620  16.159  0.00  0.00    +0.000 HD
ATOM     52  H   UNL     1      -9.892 -11.146  17.866  0.00  0.00    +0.000 HD
ENDBRANCH  46  49
ENDBRANCH  43  46
ENDBRANCH  42  43
ENDBRANCH   1  42
TORSDOF 7
ENDMDL
MODEL 5
REMARK VINA RESULT:    -6.845      3.165      6.792
REMARK INTER + INTRA:          -9.671
REMARK INTER:                  -9.801
REMARK INTRA:                   0.130
REMARK UNBOUND:                -0.626
REMARK  Name = 
REMARK  7 active torsions:
REMARK  status: ('A' for Active; 'I' for Inactive)
REMARK    1  A    between atoms: C_1  and  C_2
REMARK    2  A    between atoms: C_2  and  C_3
REMARK    3  A    between atoms: C_3  and  S_4
REMARK    4  A    between atoms: S_4  and  C_5
REMARK    5  A    between atoms: C_18  and  C_19
REMARK    6  A    between atoms: C_18  and  C_20
REMARK    7  A    between atoms: C_22  and  C_23
REMARK                            x       y       z     vdW  Elec       q    Type
REMARK                         _______ _______ _______ _____ _____    ______ ____
ROOT
ATOM      1  C   UNL     1      -9.878  -0.984  18.775  0.00  0.00    +0.000 A 
ATOM      2  N   UNL     1      -9.260  -1.142  19.892  0.00  0.00    +0.000 NA
ATOM      3  C   UNL     1      -9.014  -2.433  20.310  0.00  0.00    +0.000 A 
ATOM      4  O   UNL     1      -8.613  -2.690  21.437  0.00  0.00    +0.000 OA
ATOM      5  C   UNL     1      -9.248  -3.542  19.336  0.00  0.00    +0.000 A 
ATOM      6  C   UNL     1      -9.919  -3.285  18.194  0.00  0.00    +0.000 A 
ATOM      7  N   UNL     1     -10.278  -1.990  17.952  0.00  0.00    +0.000 N 
ATOM      8  N   UNL     1     -10.207  -4.325  17.329  0.00  0.00    +0.000 N 
ATOM      9  C   UNL     1      -9.994  -5.665  17.636  0.00  0.00    +0.000 C 
ATOM     10  C   UNL     1      -9.361  -5.994  18.781  0.00  0.00    +0.000 C 
ATOM     11  C   UNL     1      -9.227  -7.420  19.188  0.00  0.00    +0.000 C 
ATOM     12  O   UNL     1      -8.661  -7.731  20.233  0.00  0.00    +0.000 OA
ATOM     13  C   UNL     1      -9.905  -8.467  18.341  0.00  0.00    +0.000 C 
ATOM     14  C   UNL     1      -9.889  -8.112  16.848  0.00  0.00    +0.000 C 
ATOM     15  C   UNL     1     -10.492  -6.699  16.646  0.00  0.00    +0.000 C 
ATOM     16  C   UNL     1      -8.789  -4.934  19.715  0.00  0.00    +0.000 C 
ATOM     17  H   UNL     1     -10.709  -1.753  17.071  0.00  0.00    +0.000 HD
ATOM     18  H   UNL     1     -10.817  -4.119  16.545  0.00  0.00    +0.000 HD
ATOM     19  H   UNL     1     -10.934  -8.558  18.712  0.00  0.00    +0.000 HD
ATOM     20  H   UNL     1      -9.402  -9.427  18.510  0.00  0.00    +0.000 HD
ATOM     21  H   UNL     1     -11.586  -6.742  16.728  0.00  0.00    +0.000 HD
ATOM     22  H   UNL     1     -10.267  -6.359  15.626  0.00  0.00    +0.000 HD
ATOM     23  H   UNL     1      -9.193  -5.144  20.715  0.00  0.00    +0.000 HD
ENDROOT
BRANCH  16  24
ATOM     24  C   UNL     1      -7.266  -5.039  19.742  0.00  0.00    +0.000 A 
ATOM     25  C   UNL     1      -6.545  -5.669  18.720  0.00  0.00    +0.000 A 
ATOM     26  C   UNL     1      -5.177  -5.821  18.868  0.00  0.00    +0.000 A 
ATOM     27  N   UNL     1      -4.483  -5.391  19.942  0.00  0.00    +0.000 NA
ATOM     28  C   UNL     1      -5.193  -4.772  20.911  0.00  0.00    +0.000 A 
ATOM     29  C   UNL     1      -6.560  -4.566  20.853  0.00  0.00    +0.000 A 
ATOM     30  H   UNL     1      -7.037  -6.062  17.835  0.00  0.00    +0.000 HD
ATOM     31  H   UNL     1      -4.585  -6.322  18.108  0.00  0.00    +0.000 HD
ATOM     32  H   UNL     1      -4.620  -4.446  21.774  0.00  0.00    +0.000 HD
ATOM     33  H   UNL     1      -7.070  -4.077  21.679  0.00  0.00    +0.000 HD
ENDBRANCH  16  24
BRANCH  14  34
ATOM     34  C   UNL     1      -8.449  -8.182  16.296  0.00  0.00    +0.000 C 
ATOM     35  H   UNL     1      -8.023  -9.189  16.424  0.00  0.00    +0.000 HD
ATOM     36  H   UNL     1      -7.775  -7.476  16.793  0.00  0.00    +0.000 HD
ATOM     37  H   UNL     1      -8.428  -7.955  15.225  0.00  0.00    +0.000 HD
ENDBRANCH  14  34
BRANCH  14  38
ATOM     38  C   UNL     1     -10.736  -9.153  16.095  0.00  0.00    +0.000 C 
ATOM     39  H   UNL     1     -11.613  -9.446  16.684  0.00  0.00    +0.000 HD
ATOM     40  H   UNL     1     -10.159 -10.058  15.880  0.00  0.00    +0.000 HD
ATOM     41  H   UNL     1     -11.101  -8.752  15.142  0.00  0.00    +0.000 HD
ENDBRANCH  14  38
BRANCH   1  42
ATOM     42  S   UNL     1     -10.247   0.629  18.215  0.00  0.00    +0.000 S 
BRANCH  42  43
ATOM     43  C   UNL     1     -10.661   1.389  19.816  0.00  0.00    +0.000 C 
ATOM     44  H   UNL     1     -10.038   0.961  20.608  0.00  0.00    +0.000 HD
ATOM     45  H   UNL     1     -10.447   2.461  19.753  0.00  0.00    +0.000 HD
BRANCH  43  46
ATOM     46  C   UNL     1     -12.138   1.165  20.133  0.00  0.00    +0.000 C 
ATOM     47  H   UNL     1     -12.675   2.121  20.158  0.00  0.00    +0.000 HD
ATOM     48  H   UNL     1     -12.602   0.547  19.355  0.00  0.00    +0.000 HD
BRANCH  46  49
ATOM     49  C   UNL     1     -12.318   0.475  21.478  0.00  0.00    +0.000 C 
ATOM     50  H   UNL     1     -11.343   0.266  21.929  0.00  0.00    +0.000 HD
ATOM     51  H   UNL     1     -12.848  -0.476  21.362  0.00  0.00    +0.000 HD
ATOM     52  H   UNL     1     -12.885   1.104  22.171  0.00  0.00    +0.000 HD
ENDBRANCH  46  49
ENDBRANCH  43  46
ENDBRANCH  42  43
ENDBRANCH   1  42
TORSDOF 7
ENDMDL
MODEL 6
REMARK VINA RESULT:    -6.678      3.396      6.761
REMARK INTER + INTRA:          -9.451
REMARK INTER:                  -8.669
REMARK INTRA:                  -0.783
REMARK UNBOUND:                -0.626
REMARK  Name = 
REMARK  7 active torsions:
REMARK  status: ('A' for Active; 'I' for Inactive)
REMARK    1  A    between atoms: C_1  and  C_2
REMARK    2  A    between atoms: C_2  and  C_3
REMARK    3  A    between atoms: C_3  and  S_4
REMARK    4  A    between atoms: S_4  and  C_5
REMARK    5  A    between atoms: C_18  and  C_19
REMARK    6  A    between atoms: C_18  and  C_20
REMARK    7  A    between atoms: C_22  and  C_23
REMARK                            x       y       z     vdW  Elec       q    Type
REMARK                         _______ _______ _______ _____ _____    ______ ____
ROOT
ATOM      1  C   UNL     1      -9.613  -2.343  13.177  0.00  0.00    +0.000 A 
ATOM      2  N   UNL     1     -10.596  -1.844  13.840  0.00  0.00    +0.000 NA
ATOM      3  C   UNL     1     -11.212  -2.650  14.774  0.00  0.00    +0.000 A 
ATOM      4  O   UNL     1     -12.268  -2.342  15.310  0.00  0.00    +0.000 OA
ATOM      5  C   UNL     1     -10.549  -3.941  15.132  0.00  0.00    +0.000 A 
ATOM      6  C   UNL     1      -9.533  -4.394  14.368  0.00  0.00    +0.000 A 
ATOM      7  N   UNL     1      -9.106  -3.593  13.348  0.00  0.00    +0.000 N 
ATOM      8  N   UNL     1      -8.971  -5.626  14.649  0.00  0.00    +0.000 N 
ATOM      9  C   UNL     1      -9.497  -6.520  15.576  0.00  0.00    +0.000 C 
ATOM     10  C   UNL     1     -10.539  -6.145  16.347  0.00  0.00    +0.000 C 
ATOM     11  C   UNL     1     -11.195  -7.122  17.260  0.00  0.00    +0.000 C 
ATOM     12  O   UNL     1     -12.150  -6.794  17.959  0.00  0.00    +0.000 OA
ATOM     13  C   UNL     1     -10.729  -8.556  17.219  0.00  0.00    +0.000 C 
ATOM     14  C   UNL     1      -9.221  -8.672  16.958  0.00  0.00    +0.000 C 
ATOM     15  C   UNL     1      -8.857  -7.890  15.672  0.00  0.00    +0.000 C 
ATOM     16  C   UNL     1     -11.108  -4.732  16.296  0.00  0.00    +0.000 C 
ATOM     17  H   UNL     1      -8.297  -3.866  12.811  0.00  0.00    +0.000 HD
ATOM     18  H   UNL     1      -8.297  -5.990  13.985  0.00  0.00    +0.000 HD
ATOM     19  H   UNL     1     -11.304  -9.054  16.429  0.00  0.00    +0.000 HD
ATOM     20  H   UNL     1     -10.989  -9.030  18.173  0.00  0.00    +0.000 HD
ATOM     21  H   UNL     1      -9.158  -8.463  14.785  0.00  0.00    +0.000 HD
ATOM     22  H   UNL     1      -7.765  -7.782  15.619  0.00  0.00    +0.000 HD
ATOM     23  H   UNL     1     -12.189  -4.833  16.127  0.00  0.00    +0.000 HD
ENDROOT
BRANCH  16  24
ATOM     24  C   UNL     1     -10.858  -4.028  17.627  0.00  0.00    +0.000 A 
ATOM     25  C   UNL     1     -11.875  -3.349  18.311  0.00  0.00    +0.000 A 
ATOM     26  C   UNL     1     -11.548  -2.642  19.457  0.00  0.00    +0.000 A 
ATOM     27  N   UNL     1     -10.301  -2.569  19.967  0.00  0.00    +0.000 NA
ATOM     28  C   UNL     1      -9.336  -3.242  19.302  0.00  0.00    +0.000 A 
ATOM     29  C   UNL     1      -9.563  -3.982  18.154  0.00  0.00    +0.000 A 
ATOM     30  H   UNL     1     -12.898  -3.343  17.950  0.00  0.00    +0.000 HD
ATOM     31  H   UNL     1     -12.302  -2.085  20.004  0.00  0.00    +0.000 HD
ATOM     32  H   UNL     1      -8.337  -3.160  19.719  0.00  0.00    +0.000 HD
ATOM     33  H   UNL     1      -8.736  -4.483  17.660  0.00  0.00    +0.000 HD
ENDBRANCH  16  24
BRANCH  14  34
ATOM     34  C   UNL     1      -8.425  -8.143  18.171  0.00  0.00    +0.000 C 
ATOM     35  H   UNL     1      -7.699  -7.374  17.864  0.00  0.00    +0.000 HD
ATOM     36  H   UNL     1      -7.868  -8.934  18.683  0.00  0.00    +0.000 HD
ATOM     37  H   UNL     1      -9.092  -7.683  18.908  0.00  0.00    +0.000 HD
ENDBRANCH  14  34
BRANCH  14  38
ATOM     38  C   UNL     1      -8.876 -10.161  16.778  0.00  0.00    +0.000 C 
ATOM     39  H   UNL     1      -9.099 -10.728  17.690  0.00  0.00    +0.000 HD
ATOM     40  H   UNL     1      -7.815 -10.301  16.548  0.00  0.00    +0.000 HD
ATOM     41  H   UNL     1      -9.459 -10.608  15.965  0.00  0.00    +0.000 HD
ENDBRANCH  14  38
BRANCH   1  42
ATOM     42  S   UNL     1      -8.819  -1.377  11.958  0.00  0.00    +0.000 S 
BRANCH  42  43
ATOM     43  C   UNL     1     -10.261  -1.018  10.906  0.00  0.00    +0.000 C 
ATOM     44  H   UNL     1     -11.044  -0.532  11.496  0.00  0.00    +0.000 HD
ATOM     45  H   UNL     1      -9.947  -0.327  10.117  0.00  0.00    +0.000 HD
BRANCH  43  46
ATOM     46  C   UNL     1     -10.793  -2.311  10.294  0.00  0.00    +0.000 C 
ATOM     47  H   UNL     1     -10.672  -2.298   9.204  0.00  0.00    +0.000 HD
ATOM     48  H   UNL     1     -10.232  -3.171  10.678  0.00  0.00    +0.000 HD
BRANCH  46  49
ATOM     49  C   UNL     1     -12.269  -2.509  10.613  0.00  0.00    +0.000 C 
ATOM     50  H   UNL     1     -12.453  -3.543  10.922  0.00  0.00    +0.000 HD
ATOM     51  H   UNL     1     -12.891  -2.301   9.736  0.00  0.00    +0.000 HD
ATOM     52  H   UNL     1     -12.588  -1.850  11.426  0.00  0.00    +0.000 HD
ENDBRANCH  46  49
ENDBRANCH  43  46
ENDBRANCH  42  43
ENDBRANCH   1  42
TORSDOF 7
ENDMDL
MODEL 7
REMARK VINA RESULT:    -6.658      1.507      1.927
REMARK INTER + INTRA:          -9.424
REMARK INTER:                  -8.807
REMARK INTRA:                  -0.617
REMARK UNBOUND:                -0.626
REMARK  Name = 
REMARK  7 active torsions:
REMARK  status: ('A' for Active; 'I' for Inactive)
REMARK    1  A    between atoms: C_1  and  C_2
REMARK    2  A    between atoms: C_2  and  C_3
REMARK    3  A    between atoms: C_3  and  S_4
REMARK    4  A    between atoms: S_4  and  C_5
REMARK    5  A    between atoms: C_18  and  C_19
REMARK    6  A    between atoms: C_18  and  C_20
REMARK    7  A    between atoms: C_22  and  C_23
REMARK                            x       y       z     vdW  Elec       q    Type
REMARK                         _______ _______ _______ _____ _____    ______ ____
ROOT
ATOM      1  C   UNL     1     -10.482  -6.542  17.459  0.00  0.00    +0.000 A 
ATOM      2  N   UNL     1      -9.662  -6.410  18.442  0.00  0.00    +0.000 NA
ATOM      3  C   UNL     1      -9.215  -5.139  18.734  0.00  0.00    +0.000 A 
ATOM      4  O   UNL     1      -8.293  -4.933  19.513  0.00  0.00    +0.000 OA
ATOM      5  C   UNL     1      -9.893  -3.986  18.069  0.00  0.00    +0.000 A 
ATOM      6  C   UNL     1     -10.728  -4.220  17.035  0.00  0.00    +0.000 A 
ATOM      7  N   UNL     1     -10.973  -5.522  16.705  0.00  0.00    +0.000 N 
ATOM      8  N   UNL     1     -11.295  -3.151  16.366  0.00  0.00    +0.000 N 
ATOM      9  C   UNL     1     -10.931  -1.826  16.582  0.00  0.00    +0.000 C 
ATOM     10  C   UNL     1     -10.071  -1.525  17.577  0.00  0.00    +0.000 C 
ATOM     11  C   UNL     1      -9.575  -0.131  17.752  0.00  0.00    +0.000 C 
ATOM     12  O   UNL     1      -8.784   0.153  18.648  0.00  0.00    +0.000 OA
ATOM     13  C   UNL     1      -9.979   0.901  16.729  0.00  0.00    +0.000 C 
ATOM     14  C   UNL     1     -11.403   0.675  16.203  0.00  0.00    +0.000 C 
ATOM     15  C   UNL     1     -11.535  -0.774  15.673  0.00  0.00    +0.000 C 
ATOM     16  C   UNL     1      -9.548  -2.587  18.535  0.00  0.00    +0.000 C 
ATOM     17  H   UNL     1     -11.654  -5.732  15.991  0.00  0.00    +0.000 HD
ATOM     18  H   UNL     1     -11.816  -3.357  15.521  0.00  0.00    +0.000 HD
ATOM     19  H   UNL     1      -9.247   0.845  15.914  0.00  0.00    +0.000 HD
ATOM     20  H   UNL     1      -9.895   1.893  17.188  0.00  0.00    +0.000 HD
ATOM     21  H   UNL     1     -11.051  -0.862  14.692  0.00  0.00    +0.000 HD
ATOM     22  H   UNL     1     -12.599  -1.001  15.517  0.00  0.00    +0.000 HD
ATOM     23  H   UNL     1      -8.451  -2.508  18.526  0.00  0.00    +0.000 HD
ENDROOT
BRANCH  16  24
ATOM     24  C   UNL     1     -10.072  -2.316  19.943  0.00  0.00    +0.000 A 
ATOM     25  C   UNL     1     -11.431  -2.092  20.199  0.00  0.00    +0.000 A 
ATOM     26  C   UNL     1     -11.817  -1.745  21.483  0.00  0.00    +0.000 A 
ATOM     27  N   UNL     1     -10.960  -1.613  22.517  0.00  0.00    +0.000 NA
ATOM     28  C   UNL     1      -9.655  -1.847  22.254  0.00  0.00    +0.000 A 
ATOM     29  C   UNL     1      -9.173  -2.205  21.007  0.00  0.00    +0.000 A 
ATOM     30  H   UNL     1     -12.178  -2.158  19.413  0.00  0.00    +0.000 HD
ATOM     31  H   UNL     1     -12.857  -1.542  21.719  0.00  0.00    +0.000 HD
ATOM     32  H   UNL     1      -8.980  -1.722  23.094  0.00  0.00    +0.000 HD
ATOM     33  H   UNL     1      -8.107  -2.360  20.863  0.00  0.00    +0.000 HD
ENDBRANCH  16  24
BRANCH  14  34
ATOM     34  C   UNL     1     -12.436   0.951  17.318  0.00  0.00    +0.000 C 
ATOM     35  H   UNL     1     -12.271   0.293  18.184  0.00  0.00    +0.000 HD
ATOM     36  H   UNL     1     -13.467   0.798  16.981  0.00  0.00    +0.000 HD
ATOM     37  H   UNL     1     -12.359   1.984  17.676  0.00  0.00    +0.000 HD
ENDBRANCH  14  34
BRANCH  14  38
ATOM     38  C   UNL     1     -11.661   1.674  15.061  0.00  0.00    +0.000 C 
ATOM     39  H   UNL     1     -12.736   1.830  14.912  0.00  0.00    +0.000 HD
ATOM     40  H   UNL     1     -11.240   1.317  14.115  0.00  0.00    +0.000 HD
ATOM     41  H   UNL     1     -11.216   2.651  15.281  0.00  0.00    +0.000 HD
ENDBRANCH  14  38
BRANCH   1  42
ATOM     42  S   UNL     1     -11.054  -8.134  17.024  0.00  0.00    +0.000 S 
BRANCH  42  43
ATOM     43  C   UNL     1      -9.459  -9.011  17.026  0.00  0.00    +0.000 C 
ATOM     44  H   UNL     1      -8.776  -8.550  16.306  0.00  0.00    +0.000 HD
ATOM     45  H   UNL     1      -9.018  -8.920  18.024  0.00  0.00    +0.000 HD
BRANCH  43  46
ATOM     46  C   UNL     1      -9.673 -10.482  16.677  0.00  0.00    +0.000 C 
ATOM     47  H   UNL     1     -10.744 -10.708  16.605  0.00  0.00    +0.000 HD
ATOM     48  H   UNL     1      -9.223 -10.709  15.704  0.00  0.00    +0.000 HD
BRANCH  46  49
ATOM     49  C   UNL     1      -9.056 -11.396  17.727  0.00  0.00    +0.000 C 
ATOM     50  H   UNL     1      -8.472 -10.809  18.442  0.00  0.00    +0.000 HD
ATOM     51  H   UNL     1      -8.388 -12.129  17.264  0.00  0.00    +0.000 HD
ATOM     52  H   UNL     1      -9.829 -11.936  18.282  0.00  0.00    +0.000 HD
ENDBRANCH  46  49
ENDBRANCH  43  46
ENDBRANCH  42  43
ENDBRANCH   1  42
TORSDOF 7
ENDMDL
MODEL 8
REMARK VINA RESULT:    -6.645      2.469      5.064
REMARK INTER + INTRA:          -9.408
REMARK INTER:                  -8.736
REMARK INTRA:                  -0.672
REMARK UNBOUND:                -0.626
REMARK  Name = 
REMARK  7 active torsions:
REMARK  status: ('A' for Active; 'I' for Inactive)
REMARK    1  A    between atoms: C_1  and  C_2
REMARK    2  A    between atoms: C_2  and  C_3
REMARK    3  A    between atoms: C_3  and  S_4
REMARK    4  A    between atoms: S_4  and  C_5
REMARK    5  A    between atoms: C_18  and  C_19
REMARK    6  A    between atoms: C_18  and  C_20
REMARK    7  A    between atoms: C_22  and  C_23
REMARK                            x       y       z     vdW  Elec       q    Type
REMARK                         _______ _______ _______ _____ _____    ______ ____
ROOT
ATOM      1  C   UNL     1      -9.416  -5.358  17.252  0.00  0.00    +0.000 A 
ATOM      2  N   UNL     1     -10.351  -4.663  16.707  0.00  0.00    +0.000 NA
ATOM      3  C   UNL     1     -10.964  -3.698  17.480  0.00  0.00    +0.000 A 
ATOM      4  O   UNL     1     -11.984  -3.125  17.123  0.00  0.00    +0.000 OA
ATOM      5  C   UNL     1     -10.343  -3.354  18.795  0.00  0.00    +0.000 A 
ATOM      6  C   UNL     1      -9.376  -4.152  19.296  0.00  0.00    +0.000 A 
ATOM      7  N   UNL     1      -8.956  -5.195  18.522  0.00  0.00    +0.000 N 
ATOM      8  N   UNL     1      -8.856  -3.881  20.548  0.00  0.00    +0.000 N 
ATOM      9  C   UNL     1      -9.383  -2.926  21.412  0.00  0.00    +0.000 C 
ATOM     10  C   UNL     1     -10.378  -2.120  20.988  0.00  0.00    +0.000 C 
ATOM     11  C   UNL     1     -11.038  -1.174  21.929  0.00  0.00    +0.000 C 
ATOM     12  O   UNL     1     -11.951  -0.441  21.556  0.00  0.00    +0.000 OA
ATOM     13  C   UNL     1     -10.634  -1.219  23.382  0.00  0.00    +0.000 C 
ATOM     14  C   UNL     1      -9.144  -1.536  23.564  0.00  0.00    +0.000 C 
ATOM     15  C   UNL     1      -8.797  -2.843  22.808  0.00  0.00    +0.000 C 
ATOM     16  C   UNL     1     -10.888  -2.162  19.553  0.00  0.00    +0.000 C 
ATOM     17  H   UNL     1      -8.181  -5.760  18.832  0.00  0.00    +0.000 HD
ATOM     18  H   UNL     1      -8.224  -4.567  20.945  0.00  0.00    +0.000 HD
ATOM     19  H   UNL     1     -11.260  -1.981  23.861  0.00  0.00    +0.000 HD
ATOM     20  H   UNL     1     -10.877  -0.251  23.837  0.00  0.00    +0.000 HD
ATOM     21  H   UNL     1      -9.156  -3.712  23.374  0.00  0.00    +0.000 HD
ATOM     22  H   UNL     1      -7.705  -2.939  22.746  0.00  0.00    +0.000 HD
ATOM     23  H   UNL     1     -11.979  -2.288  19.609  0.00  0.00    +0.000 HD
ENDROOT
BRANCH  16  24
ATOM     24  C   UNL     1     -10.558  -0.848  18.849  0.00  0.00    +0.000 A 
ATOM     25  C   UNL     1     -11.536  -0.091  18.191  0.00  0.00    +0.000 A 
ATOM     26  C   UNL     1     -11.142   1.032  17.483  0.00  0.00    +0.000 A 
ATOM     27  N   UNL     1      -9.863   1.454  17.391  0.00  0.00    +0.000 NA
ATOM     28  C   UNL     1      -8.936   0.720  18.044  0.00  0.00    +0.000 A 
ATOM     29  C   UNL     1      -9.231  -0.413  18.783  0.00  0.00    +0.000 A 
ATOM     30  H   UNL     1     -12.582  -0.380  18.201  0.00  0.00    +0.000 HD
ATOM     31  H   UNL     1     -11.865   1.634  16.942  0.00  0.00    +0.000 HD
ATOM     32  H   UNL     1      -7.912   1.067  17.946  0.00  0.00    +0.000 HD
ATOM     33  H   UNL     1      -8.431  -0.966  19.268  0.00  0.00    +0.000 HD
ENDBRANCH  16  24
BRANCH  14  34
ATOM     34  C   UNL     1      -8.280  -0.360  23.059  0.00  0.00    +0.000 C 
ATOM     35  H   UNL     1      -7.919   0.256  23.898  0.00  0.00    +0.000 HD
ATOM     36  H   UNL     1      -8.828   0.301  22.380  0.00  0.00    +0.000 HD
ATOM     37  H   UNL     1      -7.398  -0.724  22.521  0.00  0.00    +0.000 HD
ENDBRANCH  14  34
BRANCH  14  38
ATOM     38  C   UNL     1      -8.869  -1.715  25.067  0.00  0.00    +0.000 C 
ATOM     39  H   UNL     1      -7.795  -1.828  25.259  0.00  0.00    +0.000 HD
ATOM     40  H   UNL     1      -9.374  -2.602  25.464  0.00  0.00    +0.000 HD
ATOM     41  H   UNL     1      -9.214  -0.847  25.640  0.00  0.00    +0.000 HD
ENDBRANCH  14  38
BRANCH   1  42
ATOM     42  S   UNL     1      -8.630  -6.615  16.330  0.00  0.00    +0.000 S 
BRANCH  42  43
ATOM     43  C   UNL     1      -9.841  -7.949  16.592  0.00  0.00    +0.000 C 
ATOM     44  H   UNL     1     -10.722  -7.559  17.112  0.00  0.00    +0.000 HD
ATOM     45  H   UNL     1     -10.158  -8.323  15.613  0.00  0.00    +0.000 HD
BRANCH  43  46
ATOM     46  C   UNL     1      -9.208  -9.075  17.406  0.00  0.00    +0.000 C 
ATOM     47  H   UNL     1      -8.115  -8.985  17.400  0.00  0.00    +0.000 HD
ATOM     48  H   UNL     1      -9.538  -9.019  18.450  0.00  0.00    +0.000 HD
BRANCH  46  49
ATOM     49  C   UNL     1      -9.584 -10.441  16.848  0.00  0.00    +0.000 C 
ATOM     50  H   UNL     1      -9.957 -11.087  17.649  0.00  0.00    +0.000 HD
ATOM     51  H   UNL     1      -8.716 -10.931  16.394  0.00  0.00    +0.000 HD
ATOM     52  H   UNL     1     -10.367 -10.354  16.088  0.00  0.00    +0.000 HD
ENDBRANCH  46  49
ENDBRANCH  43  46
ENDBRANCH  42  43
ENDBRANCH   1  42
TORSDOF 7
ENDMDL
MODEL 9
REMARK VINA RESULT:    -6.555      2.640      4.823
REMARK INTER + INTRA:          -9.288
REMARK INTER:                  -8.646
REMARK INTRA:                  -0.642
REMARK UNBOUND:                -0.626
REMARK  Name = 
REMARK  7 active torsions:
REMARK  status: ('A' for Active; 'I' for Inactive)
REMARK    1  A    between atoms: C_1  and  C_2
REMARK    2  A    between atoms: C_2  and  C_3
REMARK    3  A    between atoms: C_3  and  S_4
REMARK    4  A    between atoms: S_4  and  C_5
REMARK    5  A    between atoms: C_18  and  C_19
REMARK    6  A    between atoms: C_18  and  C_20
REMARK    7  A    between atoms: C_22  and  C_23
REMARK                            x       y       z     vdW  Elec       q    Type
REMARK                         _______ _______ _______ _____ _____    ______ ____
ROOT
ATOM      1  C   UNL     1      -9.971  -5.904  18.231  0.00  0.00    +0.000 A 
ATOM      2  N   UNL     1     -10.477  -6.256  17.102  0.00  0.00    +0.000 NA
ATOM      3  C   UNL     1     -11.215  -5.317  16.412  0.00  0.00    +0.000 A 
ATOM      4  O   UNL     1     -11.895  -5.607  15.437  0.00  0.00    +0.000 OA
ATOM      5  C   UNL     1     -11.169  -3.901  16.888  0.00  0.00    +0.000 A 
ATOM      6  C   UNL     1     -10.631  -3.629  18.095  0.00  0.00    +0.000 A 
ATOM      7  N   UNL     1     -10.075  -4.667  18.786  0.00  0.00    +0.000 N 
ATOM      8  N   UNL     1     -10.659  -2.331  18.572  0.00  0.00    +0.000 N 
ATOM      9  C   UNL     1     -11.361  -1.299  17.958  0.00  0.00    +0.000 C 
ATOM     10  C   UNL     1     -11.956  -1.514  16.767  0.00  0.00    +0.000 C 
ATOM     11  C   UNL     1     -12.811  -0.463  16.148  0.00  0.00    +0.000 C 
ATOM     12  O   UNL     1     -13.365  -0.651  15.068  0.00  0.00    +0.000 OA
ATOM     13  C   UNL     1     -13.073   0.795  16.937  0.00  0.00    +0.000 C 
ATOM     14  C   UNL     1     -11.863   1.218  17.780  0.00  0.00    +0.000 C 
ATOM     15  C   UNL     1     -11.417   0.035  18.675  0.00  0.00    +0.000 C 
ATOM     16  C   UNL     1     -11.809  -2.835  16.023  0.00  0.00    +0.000 C 
ATOM     17  H   UNL     1      -9.594  -4.483  19.653  0.00  0.00    +0.000 HD
ATOM     18  H   UNL     1     -10.359  -2.183  19.530  0.00  0.00    +0.000 HD
ATOM     19  H   UNL     1     -13.944   0.596  17.572  0.00  0.00    +0.000 HD
ATOM     20  H   UNL     1     -13.345   1.592  16.234  0.00  0.00    +0.000 HD
ATOM     21  H   UNL     1     -12.102  -0.071  19.527  0.00  0.00    +0.000 HD
ATOM     22  H   UNL     1     -10.428   0.260  19.096  0.00  0.00    +0.000 HD
ATOM     23  H   UNL     1     -12.826  -3.180  15.788  0.00  0.00    +0.000 HD
ENDROOT
BRANCH  16  24
ATOM     24  C   UNL     1     -11.028  -2.615  14.730  0.00  0.00    +0.000 A 
ATOM     25  C   UNL     1      -9.791  -1.960  14.710  0.00  0.00    +0.000 A 
ATOM     26  C   UNL     1      -9.195  -1.700  13.488  0.00  0.00    +0.000 A 
ATOM     27  N   UNL     1      -9.731  -2.049  12.299  0.00  0.00    +0.000 NA
ATOM     28  C   UNL     1     -10.918  -2.694  12.338  0.00  0.00    +0.000 A 
ATOM     29  C   UNL     1     -11.589  -3.004  13.509  0.00  0.00    +0.000 A 
ATOM     30  H   UNL     1      -9.307  -1.629  15.625  0.00  0.00    +0.000 HD
ATOM     31  H   UNL     1      -8.246  -1.176  13.428  0.00  0.00    +0.000 HD
ATOM     32  H   UNL     1     -11.340  -2.953  11.372  0.00  0.00    +0.000 HD
ATOM     33  H   UNL     1     -12.550  -3.508  13.465  0.00  0.00    +0.000 HD
ENDBRANCH  16  24
BRANCH  14  34
ATOM     34  C   UNL     1     -10.709   1.684  16.866  0.00  0.00    +0.000 C 
ATOM     35  H   UNL     1     -10.942   2.651  16.393  0.00  0.00    +0.000 HD
ATOM     36  H   UNL     1     -10.495   0.970  16.064  0.00  0.00    +0.000 HD
ATOM     37  H   UNL     1      -9.784   1.818  17.438  0.00  0.00    +0.000 HD
ENDBRANCH  14  34
BRANCH  14  38
ATOM     38  C   UNL     1     -12.280   2.410  18.660  0.00  0.00    +0.000 C 
ATOM     39  H   UNL     1     -11.843   3.344  18.288  0.00  0.00    +0.000 HD
ATOM     40  H   UNL     1     -11.952   2.276  19.696  0.00  0.00    +0.000 HD
ATOM     41  H   UNL     1     -13.369   2.538  18.665  0.00  0.00    +0.000 HD
ENDBRANCH  14  38
BRANCH   1  42
ATOM     42  S   UNL     1      -9.055  -7.064  19.162  0.00  0.00    +0.000 S 
BRANCH  42  43
ATOM     43  C   UNL     1      -9.214  -8.497  18.051  0.00  0.00    +0.000 C 
ATOM     44  H   UNL     1     -10.243  -8.576  17.685  0.00  0.00    +0.000 HD
ATOM     45  H   UNL     1      -8.555  -8.341  17.191  0.00  0.00    +0.000 HD
BRANCH  43  46
ATOM     46  C   UNL     1      -8.822  -9.775  18.790  0.00  0.00    +0.000 C 
ATOM     47  H   UNL     1      -7.817  -9.678  19.218  0.00  0.00    +0.000 HD
ATOM     48  H   UNL     1      -9.516  -9.962  19.617  0.00  0.00    +0.000 HD
BRANCH  46  49
ATOM     49  C   UNL     1      -8.836 -10.980  17.859  0.00  0.00    +0.000 C 
ATOM     50  H   UNL     1      -9.781 -11.522  17.958  0.00  0.00    +0.000 HD
ATOM     51  H   UNL     1      -8.022 -11.671  18.100  0.00  0.00    +0.000 HD
ATOM     52  H   UNL     1      -8.729 -10.672  16.814  0.00  0.00    +0.000 HD
ENDBRANCH  46  49
ENDBRANCH  43  46
ENDBRANCH  42  43
ENDBRANCH   1  42
TORSDOF 7
ENDMDL
