MODEL 1
REMARK VINA RESULT:    -9.672      0.000      0.000
REMARK INTER + INTRA:         -13.121
REMARK INTER:                 -12.782
REMARK INTRA:                  -0.339
REMARK UNBOUND:                -0.339
REMARK  Name = 
REMARK  7 active torsions:
REMARK  status: ('A' for Active; 'I' for Inactive)
REMARK    1  A    between atoms: C_1  and  C_2
REMARK    2  A    between atoms: C_4  and  C_5
REMARK    3  A    between atoms: C_7  and  N_8
REMARK    4  A    between atoms: N_8  and  C_9
REMARK    5  A    between atoms: N_14  and  C_15
REMARK    6  A    between atoms: C_15  and  C_16
REMARK    7  A    between atoms: C_21  and  N_22
REMARK                            x       y       z     vdW  Elec       q    Type
REMARK                         _______ _______ _______ _____ _____    ______ ____
ROOT
ATOM      1  C   UNL     1      -9.962  -7.092  16.148  0.00  0.00    +0.000 A 
ATOM      2  N   UNL     1     -11.280  -6.861  16.169  0.00  0.00    +0.000 N 
ATOM      3  C   UNL     1     -11.776  -5.859  16.882  0.00  0.00    +0.000 A 
ATOM      4  N   UNL     1     -11.035  -4.993  17.584  0.00  0.00    +0.000 NA
ATOM      5  C   UNL     1      -9.702  -5.181  17.565  0.00  0.00    +0.000 A 
ATOM      6  N   UNL     1      -8.873  -4.317  18.300  0.00  0.00    +0.000 N 
ATOM      7  C   UNL     1      -9.094  -6.212  16.819  0.00  0.00    +0.000 A 
ATOM      8  H   UNL     1     -11.883  -7.483  15.642  0.00  0.00    +0.000 HD
ATOM      9  H   UNL     1     -12.854  -5.755  16.919  0.00  0.00    +0.000 HD
ATOM     10  H   UNL     1      -8.445  -4.833  19.073  0.00  0.00    +0.000 HD
ENDROOT
BRANCH   6  11
ATOM     11  C   UNL     1      -9.532  -3.102  18.813  0.00  0.00    +0.000 C 
ATOM     12  H   UNL     1     -10.619  -3.181  18.683  0.00  0.00    +0.000 HD
ATOM     13  H   UNL     1      -9.169  -2.227  18.259  0.00  0.00    +0.000 HD
BRANCH  11  14
ATOM     14  C   UNL     1      -9.254  -2.918  20.308  0.00  0.00    +0.000 C 
ATOM     15  C   UNL     1      -8.907  -1.502  20.737  0.00  0.00    +0.000 C 
ATOM     16  C   UNL     1      -8.118  -1.752  21.999  0.00  0.00    +0.000 C 
ATOM     17  C   UNL     1      -7.363  -3.024  21.671  0.00  0.00    +0.000 C 
ATOM     18  O   UNL     1      -8.130  -3.738  20.689  0.00  0.00    +0.000 OA
ATOM     19  H   UNL     1     -10.120  -3.276  20.878  0.00  0.00    +0.000 HD
ATOM     20  H   UNL     1      -9.791  -0.877  20.895  0.00  0.00    +0.000 HD
ATOM     21  H   UNL     1      -8.264  -1.000  20.006  0.00  0.00    +0.000 HD
ATOM     22  H   UNL     1      -8.803  -1.929  22.837  0.00  0.00    +0.000 HD
ATOM     23  H   UNL     1      -7.455  -0.927  22.270  0.00  0.00    +0.000 HD
ATOM     24  H   UNL     1      -7.209  -3.657  22.549  0.00  0.00    +0.000 HD
ATOM     25  H   UNL     1      -6.389  -2.804  21.223  0.00  0.00    +0.000 HD
ENDBRANCH  11  14
ENDBRANCH   6  11
BRANCH   7  26
ATOM     26  N   UNL     1      -7.705  -6.471  16.917  0.00  0.00    +0.000 N 
ATOM     27  H   UNL     1      -7.512  -7.458  16.717  0.00  0.00    +0.000 HD
ATOM     28  H   UNL     1      -7.285  -6.213  17.809  0.00  0.00    +0.000 HD
ENDBRANCH   7  26
BRANCH   1  29
ATOM     29  N   UNL     1      -9.486  -8.203  15.416  0.00  0.00    +0.000 N 
ATOM     30  H   UNL     1      -8.622  -7.929  14.937  0.00  0.00    +0.000 HD
BRANCH  29  35
ATOM     31  C   UNL     1      -8.707 -10.779  18.013  0.00  0.00    +0.000 A 
ATOM     32  C   UNL     1      -8.631 -11.923  17.215  0.00  0.00    +0.000 A 
ATOM     33  C   UNL     1      -8.820 -11.844  15.829  0.00  0.00    +0.000 A 
ATOM     34  C   UNL     1      -9.109 -10.605  15.240  0.00  0.00    +0.000 A 
ATOM     35  C   UNL     1      -9.234  -9.460  16.030  0.00  0.00    +0.000 A 
ATOM     36  C   UNL     1      -8.978  -9.551  17.407  0.00  0.00    +0.000 A 
ATOM     37  H   UNL     1      -8.400 -12.884  17.673  0.00  0.00    +0.000 HD
ATOM     38  H   UNL     1      -9.246 -10.544  14.161  0.00  0.00    +0.000 HD
ATOM     39  H   UNL     1      -8.960  -8.662  18.032  0.00  0.00    +0.000 HD
BRANCH  31  40
ATOM     40  C   UNL     1      -8.471 -10.834  19.495  0.00  0.00    +0.000 C 
ATOM     41  H   UNL     1      -9.377 -10.588  20.056  0.00  0.00    +0.000 HD
ATOM     42  H   UNL     1      -7.693 -10.114  19.774  0.00  0.00    +0.000 HD
ATOM     43  H   UNL     1      -8.149 -11.839  19.784  0.00  0.00    +0.000 HD
ENDBRANCH  31  40
BRANCH  33  44
ATOM     44  C   UNL     1      -8.695 -13.071  14.971  0.00  0.00    +0.000 C 
ATOM     45  H   UNL     1      -8.612 -12.812  13.910  0.00  0.00    +0.000 HD
ATOM     46  H   UNL     1      -9.575 -13.710  15.091  0.00  0.00    +0.000 HD
ATOM     47  H   UNL     1      -7.798 -13.635  15.247  0.00  0.00    +0.000 HD
ENDBRANCH  33  44
ENDBRANCH  29  35
ENDBRANCH   1  29
TORSDOF 7
ENDMDL
MODEL 2
REMARK VINA RESULT:    -9.469      2.832      8.070
REMARK INTER + INTRA:         -12.853
REMARK INTER:                 -12.345
REMARK INTRA:                  -0.509
REMARK UNBOUND:                -0.339
REMARK  Name = 
REMARK  7 active torsions:
REMARK  status: ('A' for Active; 'I' for Inactive)
REMARK    1  A    between atoms: C_1  and  C_2
REMARK    2  A    between atoms: C_4  and  C_5
REMARK    3  A    between atoms: C_7  and  N_8
REMARK    4  A    between atoms: N_8  and  C_9
REMARK    5  A    between atoms: N_14  and  C_15
REMARK    6  A    between atoms: C_15  and  C_16
REMARK    7  A    between atoms: C_21  and  N_22
REMARK                            x       y       z     vdW  Elec       q    Type
REMARK                         _______ _______ _______ _____ _____    ______ ____
ROOT
ATOM      1  C   UNL     1      -9.068  -6.320  18.422  0.00  0.00    +0.000 A 
ATOM      2  N   UNL     1      -8.957  -5.772  17.206  0.00  0.00    +0.000 N 
ATOM      3  C   UNL     1      -8.873  -6.539  16.128  0.00  0.00    +0.000 A 
ATOM      4  N   UNL     1      -8.933  -7.875  16.147  0.00  0.00    +0.000 NA
ATOM      5  C   UNL     1      -9.069  -8.460  17.351  0.00  0.00    +0.000 A 
ATOM      6  N   UNL     1      -9.117  -9.861  17.437  0.00  0.00    +0.000 N 
ATOM      7  C   UNL     1      -9.183  -7.716  18.544  0.00  0.00    +0.000 A 
ATOM      8  H   UNL     1      -8.920  -4.760  17.139  0.00  0.00    +0.000 HD
ATOM      9  H   UNL     1      -8.718  -6.048  15.174  0.00  0.00    +0.000 HD
ATOM     10  H   UNL     1      -8.275 -10.201  17.910  0.00  0.00    +0.000 HD
ENDROOT
BRANCH   6  11
ATOM     11  C   UNL     1      -9.287 -10.563  16.152  0.00  0.00    +0.000 C 
ATOM     12  H   UNL     1      -8.922  -9.934  15.329  0.00  0.00    +0.000 HD
ATOM     13  H   UNL     1     -10.351 -10.778  15.991  0.00  0.00    +0.000 HD
BRANCH  11  14
ATOM     14  C   UNL     1      -8.487 -11.869  16.130  0.00  0.00    +0.000 C 
ATOM     15  C   UNL     1      -8.827 -12.822  14.997  0.00  0.00    +0.000 C 
ATOM     16  C   UNL     1      -8.400 -14.148  15.579  0.00  0.00    +0.000 C 
ATOM     17  C   UNL     1      -8.760 -13.998  17.043  0.00  0.00    +0.000 C 
ATOM     18  O   UNL     1      -8.729 -12.597  17.352  0.00  0.00    +0.000 OA
ATOM     19  H   UNL     1      -7.416 -11.630  16.106  0.00  0.00    +0.000 HD
ATOM     20  H   UNL     1      -8.314 -12.574  14.064  0.00  0.00    +0.000 HD
ATOM     21  H   UNL     1      -9.903 -12.849  14.795  0.00  0.00    +0.000 HD
ATOM     22  H   UNL     1      -7.316 -14.271  15.471  0.00  0.00    +0.000 HD
ATOM     23  H   UNL     1      -8.888 -15.008  15.112  0.00  0.00    +0.000 HD
ATOM     24  H   UNL     1      -8.070 -14.536  17.700  0.00  0.00    +0.000 HD
ATOM     25  H   UNL     1      -9.777 -14.350  17.241  0.00  0.00    +0.000 HD
ENDBRANCH  11  14
ENDBRANCH   6  11
BRANCH   7  26
ATOM     26  N   UNL     1      -9.194  -8.351  19.811  0.00  0.00    +0.000 N 
ATOM     27  H   UNL     1      -8.781  -7.738  20.520  0.00  0.00    +0.000 HD
ATOM     28  H   UNL     1      -8.736  -9.262  19.834  0.00  0.00    +0.000 HD
ENDBRANCH   7  26
BRANCH   1  29
ATOM     29  N   UNL     1      -9.101  -5.462  19.545  0.00  0.00    +0.000 N 
ATOM     30  H   UNL     1      -9.601  -5.940  20.303  0.00  0.00    +0.000 HD
BRANCH  29  35
ATOM     31  C   UNL     1      -5.506  -5.002  20.467  0.00  0.00    +0.000 A 
ATOM     32  C   UNL     1      -5.607  -3.904  21.325  0.00  0.00    +0.000 A 
ATOM     33  C   UNL     1      -6.851  -3.329  21.610  0.00  0.00    +0.000 A 
ATOM     34  C   UNL     1      -8.007  -3.850  21.010  0.00  0.00    +0.000 A 
ATOM     35  C   UNL     1      -7.918  -4.917  20.114  0.00  0.00    +0.000 A 
ATOM     36  C   UNL     1      -6.668  -5.517  19.893  0.00  0.00    +0.000 A 
ATOM     37  H   UNL     1      -4.708  -3.505  21.795  0.00  0.00    +0.000 HD
ATOM     38  H   UNL     1      -8.976  -3.408  21.241  0.00  0.00    +0.000 HD
ATOM     39  H   UNL     1      -6.580  -6.416  19.287  0.00  0.00    +0.000 HD
BRANCH  31  40
ATOM     40  C   UNL     1      -4.186  -5.657  20.176  0.00  0.00    +0.000 C 
ATOM     41  H   UNL     1      -4.318  -6.673  19.791  0.00  0.00    +0.000 HD
ATOM     42  H   UNL     1      -3.591  -5.717  21.095  0.00  0.00    +0.000 HD
ATOM     43  H   UNL     1      -3.637  -5.075  19.431  0.00  0.00    +0.000 HD
ENDBRANCH  31  40
BRANCH  33  44
ATOM     44  C   UNL     1      -6.959  -2.176  22.567  0.00  0.00    +0.000 C 
ATOM     45  H   UNL     1      -7.680  -2.382  23.366  0.00  0.00    +0.000 HD
ATOM     46  H   UNL     1      -7.291  -1.276  22.041  0.00  0.00    +0.000 HD
ATOM     47  H   UNL     1      -5.988  -1.983  23.036  0.00  0.00    +0.000 HD
ENDBRANCH  33  44
ENDBRANCH  29  35
ENDBRANCH   1  29
TORSDOF 7
ENDMDL
MODEL 3
REMARK VINA RESULT:    -9.448      0.891      2.111
REMARK INTER + INTRA:         -12.825
REMARK INTER:                 -12.310
REMARK INTRA:                  -0.515
REMARK UNBOUND:                -0.339
REMARK  Name = 
REMARK  7 active torsions:
REMARK  status: ('A' for Active; 'I' for Inactive)
REMARK    1  A    between atoms: C_1  and  C_2
REMARK    2  A    between atoms: C_4  and  C_5
REMARK    3  A    between atoms: C_7  and  N_8
REMARK    4  A    between atoms: N_8  and  C_9
REMARK    5  A    between atoms: N_14  and  C_15
REMARK    6  A    between atoms: C_15  and  C_16
REMARK    7  A    between atoms: C_21  and  N_22
REMARK                            x       y       z     vdW  Elec       q    Type
REMARK                         _______ _______ _______ _____ _____    ______ ____
ROOT
ATOM      1  C   UNL     1      -9.977  -7.596  16.543  0.00  0.00    +0.000 A 
ATOM      2  N   UNL     1     -11.228  -7.592  17.019  0.00  0.00    +0.000 N 
ATOM      3  C   UNL     1     -11.606  -6.684  17.908  0.00  0.00    +0.000 A 
ATOM      4  N   UNL     1     -10.821  -5.702  18.364  0.00  0.00    +0.000 NA
ATOM      5  C   UNL     1      -9.563  -5.660  17.888  0.00  0.00    +0.000 A 
ATOM      6  N   UNL     1      -8.685  -4.664  18.345  0.00  0.00    +0.000 N 
ATOM      7  C   UNL     1      -9.087  -6.578  16.928  0.00  0.00    +0.000 A 
ATOM      8  H   UNL     1     -11.866  -8.311  16.694  0.00  0.00    +0.000 HD
ATOM      9  H   UNL     1     -12.609  -6.765  18.311  0.00  0.00    +0.000 HD
ATOM     10  H   UNL     1      -7.941  -5.095  18.901  0.00  0.00    +0.000 HD
ENDROOT
BRANCH   6  11
ATOM     11  C   UNL     1      -9.316  -3.575  19.112  0.00  0.00    +0.000 C 
ATOM     12  H   UNL     1     -10.272  -3.917  19.532  0.00  0.00    +0.000 HD
ATOM     13  H   UNL     1      -9.503  -2.721  18.450  0.00  0.00    +0.000 HD
BRANCH  11  14
ATOM     14  C   UNL     1      -8.425  -3.138  20.279  0.00  0.00    +0.000 C 
ATOM     15  C   UNL     1      -7.731  -4.265  21.027  0.00  0.00    +0.000 C 
ATOM     16  C   UNL     1      -7.497  -3.633  22.377  0.00  0.00    +0.000 C 
ATOM     17  C   UNL     1      -8.736  -2.781  22.563  0.00  0.00    +0.000 C 
ATOM     18  O   UNL     1      -9.224  -2.442  21.256  0.00  0.00    +0.000 OA
ATOM     19  H   UNL     1      -7.678  -2.424  19.909  0.00  0.00    +0.000 HD
ATOM     20  H   UNL     1      -6.811  -4.596  20.538  0.00  0.00    +0.000 HD
ATOM     21  H   UNL     1      -8.384  -5.137  21.147  0.00  0.00    +0.000 HD
ATOM     22  H   UNL     1      -6.606  -2.995  22.340  0.00  0.00    +0.000 HD
ATOM     23  H   UNL     1      -7.362  -4.360  23.182  0.00  0.00    +0.000 HD
ATOM     24  H   UNL     1      -8.533  -1.866  23.129  0.00  0.00    +0.000 HD
ATOM     25  H   UNL     1      -9.529  -3.337  23.071  0.00  0.00    +0.000 HD
ENDBRANCH  11  14
ENDBRANCH   6  11
BRANCH   7  26
ATOM     26  N   UNL     1      -7.724  -6.597  16.539  0.00  0.00    +0.000 N 
ATOM     27  H   UNL     1      -7.514  -5.792  15.941  0.00  0.00    +0.000 HD
ATOM     28  H   UNL     1      -7.425  -7.456  16.079  0.00  0.00    +0.000 HD
ENDBRANCH   7  26
BRANCH   1  29
ATOM     29  N   UNL     1      -9.606  -8.615  15.638  0.00  0.00    +0.000 N 
ATOM     30  H   UNL     1      -8.868  -8.251  15.024  0.00  0.00    +0.000 HD
BRANCH  29  35
ATOM     31  C   UNL     1      -8.761 -12.258  15.628  0.00  0.00    +0.000 A 
ATOM     32  C   UNL     1      -8.438 -12.443  16.975  0.00  0.00    +0.000 A 
ATOM     33  C   UNL     1      -8.514 -11.380  17.883  0.00  0.00    +0.000 A 
ATOM     34  C   UNL     1      -8.898 -10.110  17.429  0.00  0.00    +0.000 A 
ATOM     35  C   UNL     1      -9.178  -9.897  16.077  0.00  0.00    +0.000 A 
ATOM     36  C   UNL     1      -9.157 -10.991  15.198  0.00  0.00    +0.000 A 
ATOM     37  H   UNL     1      -8.147 -13.433  17.327  0.00  0.00    +0.000 HD
ATOM     38  H   UNL     1      -8.966  -9.286  18.139  0.00  0.00    +0.000 HD
ATOM     39  H   UNL     1      -9.475 -10.883  14.164  0.00  0.00    +0.000 HD
BRANCH  31  40
ATOM     40  C   UNL     1      -8.722 -13.393  14.644  0.00  0.00    +0.000 C 
ATOM     41  H   UNL     1      -7.829 -14.010  14.778  0.00  0.00    +0.000 HD
ATOM     42  H   UNL     1      -8.711 -12.997  13.622  0.00  0.00    +0.000 HD
ATOM     43  H   UNL     1      -9.603 -14.027  14.774  0.00  0.00    +0.000 HD
ENDBRANCH  31  40
BRANCH  33  44
ATOM     44  C   UNL     1      -8.208 -11.595  19.337  0.00  0.00    +0.000 C 
ATOM     45  H   UNL     1      -7.749 -12.575  19.511  0.00  0.00    +0.000 HD
ATOM     46  H   UNL     1      -9.127 -11.547  19.930  0.00  0.00    +0.000 HD
ATOM     47  H   UNL     1      -7.508 -10.832  19.693  0.00  0.00    +0.000 HD
ENDBRANCH  33  44
ENDBRANCH  29  35
ENDBRANCH   1  29
TORSDOF 7
ENDMDL
MODEL 4
REMARK VINA RESULT:    -9.443      2.841      7.906
REMARK INTER + INTRA:         -12.818
REMARK INTER:                 -12.336
REMARK INTRA:                  -0.482
REMARK UNBOUND:                -0.339
REMARK  Name = 
REMARK  7 active torsions:
REMARK  status: ('A' for Active; 'I' for Inactive)
REMARK    1  A    between atoms: C_1  and  C_2
REMARK    2  A    between atoms: C_4  and  C_5
REMARK    3  A    between atoms: C_7  and  N_8
REMARK    4  A    between atoms: N_8  and  C_9
REMARK    5  A    between atoms: N_14  and  C_15
REMARK    6  A    between atoms: C_15  and  C_16
REMARK    7  A    between atoms: C_21  and  N_22
REMARK                            x       y       z     vdW  Elec       q    Type
REMARK                         _______ _______ _______ _____ _____    ______ ____
ROOT
ATOM      1  C   UNL     1      -9.080  -6.317  18.441  0.00  0.00    +0.000 A 
ATOM      2  N   UNL     1      -8.955  -5.761  17.230  0.00  0.00    +0.000 N 
ATOM      3  C   UNL     1      -8.873  -6.521  16.146  0.00  0.00    +0.000 A 
ATOM      4  N   UNL     1      -8.947  -7.857  16.155  0.00  0.00    +0.000 NA
ATOM      5  C   UNL     1      -9.098  -8.449  17.354  0.00  0.00    +0.000 A 
ATOM      6  N   UNL     1      -9.162  -9.850  17.429  0.00  0.00    +0.000 N 
ATOM      7  C   UNL     1      -9.211  -7.712  18.552  0.00  0.00    +0.000 A 
ATOM      8  H   UNL     1      -8.906  -4.749  17.170  0.00  0.00    +0.000 HD
ATOM      9  H   UNL     1      -8.706  -6.025  15.197  0.00  0.00    +0.000 HD
ATOM     10  H   UNL     1      -8.327 -10.203  17.905  0.00  0.00    +0.000 HD
ENDROOT
BRANCH   6  11
ATOM     11  C   UNL     1      -9.332 -10.540  16.138  0.00  0.00    +0.000 C 
ATOM     12  H   UNL     1      -8.988  -9.894  15.319  0.00  0.00    +0.000 HD
ATOM     13  H   UNL     1     -10.392 -10.775  15.985  0.00  0.00    +0.000 HD
BRANCH  11  14
ATOM     14  C   UNL     1      -8.505 -11.829  16.092  0.00  0.00    +0.000 C 
ATOM     15  C   UNL     1      -8.867 -12.796  14.978  0.00  0.00    +0.000 C 
ATOM     16  C   UNL     1      -8.390 -14.109  15.550  0.00  0.00    +0.000 C 
ATOM     17  C   UNL     1      -8.698 -13.958  17.026  0.00  0.00    +0.000 C 
ATOM     18  O   UNL     1      -8.684 -12.555  17.326  0.00  0.00    +0.000 OA
ATOM     19  H   UNL     1      -7.441 -11.568  16.026  0.00  0.00    +0.000 HD
ATOM     20  H   UNL     1      -8.395 -12.543  14.025  0.00  0.00    +0.000 HD
ATOM     21  H   UNL     1      -9.950 -12.847  14.817  0.00  0.00    +0.000 HD
ATOM     22  H   UNL     1      -7.309 -14.210  15.401  0.00  0.00    +0.000 HD
ATOM     23  H   UNL     1      -8.877 -14.982  15.106  0.00  0.00    +0.000 HD
ATOM     24  H   UNL     1      -7.972 -14.477  17.659  0.00  0.00    +0.000 HD
ATOM     25  H   UNL     1      -9.699 -14.331  17.264  0.00  0.00    +0.000 HD
ENDBRANCH  11  14
ENDBRANCH   6  11
BRANCH   7  26
ATOM     26  N   UNL     1      -9.238  -8.357  19.813  0.00  0.00    +0.000 N 
ATOM     27  H   UNL     1     -10.163  -8.258  20.244  0.00  0.00    +0.000 HD
ATOM     28  H   UNL     1      -8.520  -8.045  20.466  0.00  0.00    +0.000 HD
ENDBRANCH   7  26
BRANCH   1  29
ATOM     29  N   UNL     1      -9.111  -5.467  19.569  0.00  0.00    +0.000 N 
ATOM     30  H   UNL     1      -9.662  -5.924  20.304  0.00  0.00    +0.000 HD
BRANCH  29  35
ATOM     31  C   UNL     1      -6.778  -3.352  21.588  0.00  0.00    +0.000 A 
ATOM     32  C   UNL     1      -5.564  -3.985  21.309  0.00  0.00    +0.000 A 
ATOM     33  C   UNL     1      -5.511  -5.089  20.450  0.00  0.00    +0.000 A 
ATOM     34  C   UNL     1      -6.695  -5.579  19.880  0.00  0.00    +0.000 A 
ATOM     35  C   UNL     1      -7.923  -4.988  20.186  0.00  0.00    +0.000 A 
ATOM     36  C   UNL     1      -7.944  -3.843  20.998  0.00  0.00    +0.000 A 
ATOM     37  H   UNL     1      -4.643  -3.599  21.748  0.00  0.00    +0.000 HD
ATOM     38  H   UNL     1      -6.651  -6.432  19.205  0.00  0.00    +0.000 HD
ATOM     39  H   UNL     1      -8.867  -3.295  21.167  0.00  0.00    +0.000 HD
BRANCH  31  40
ATOM     40  C   UNL     1      -6.853  -2.144  22.476  0.00  0.00    +0.000 C 
ATOM     41  H   UNL     1      -7.536  -2.304  23.316  0.00  0.00    +0.000 HD
ATOM     42  H   UNL     1      -7.216  -1.284  21.903  0.00  0.00    +0.000 HD
ATOM     43  H   UNL     1      -5.862  -1.915  22.877  0.00  0.00    +0.000 HD
ENDBRANCH  31  40
BRANCH  33  44
ATOM     44  C   UNL     1      -4.197  -5.738  20.121  0.00  0.00    +0.000 C 
ATOM     45  H   UNL     1      -3.850  -6.381  20.937  0.00  0.00    +0.000 HD
ATOM     46  H   UNL     1      -3.430  -4.977  19.947  0.00  0.00    +0.000 HD
ATOM     47  H   UNL     1      -4.297  -6.361  19.226  0.00  0.00    +0.000 HD
ENDBRANCH  33  44
ENDBRANCH  29  35
ENDBRANCH   1  29
TORSDOF 7
ENDMDL
MODEL 5
REMARK VINA RESULT:    -9.413      2.277      3.103
REMARK INTER + INTRA:         -12.779
REMARK INTER:                 -12.311
REMARK INTRA:                  -0.468
REMARK UNBOUND:                -0.339
REMARK  Name = 
REMARK  7 active torsions:
REMARK  status: ('A' for Active; 'I' for Inactive)
REMARK    1  A    between atoms: C_1  and  C_2
REMARK    2  A    between atoms: C_4  and  C_5
REMARK    3  A    between atoms: C_7  and  N_8
REMARK    4  A    between atoms: N_8  and  C_9
REMARK    5  A    between atoms: N_14  and  C_15
REMARK    6  A    between atoms: C_15  and  C_16
REMARK    7  A    between atoms: C_21  and  N_22
REMARK                            x       y       z     vdW  Elec       q    Type
REMARK                         _______ _______ _______ _____ _____    ______ ____
ROOT
ATOM      1  C   UNL     1     -10.373  -7.852  15.891  0.00  0.00    +0.000 A 
ATOM      2  N   UNL     1      -9.443  -7.222  15.163  0.00  0.00    +0.000 N 
ATOM      3  C   UNL     1      -9.190  -5.935  15.363  0.00  0.00    +0.000 A 
ATOM      4  N   UNL     1      -9.784  -5.187  16.299  0.00  0.00    +0.000 NA
ATOM      5  C   UNL     1     -10.709  -5.794  17.065  0.00  0.00    +0.000 A 
ATOM      6  N   UNL     1     -11.382  -5.054  18.051  0.00  0.00    +0.000 N 
ATOM      7  C   UNL     1     -11.023  -7.162  16.929  0.00  0.00    +0.000 A 
ATOM      8  H   UNL     1      -8.955  -7.751  14.448  0.00  0.00    +0.000 HD
ATOM      9  H   UNL     1      -8.475  -5.457  14.703  0.00  0.00    +0.000 HD
ATOM     10  H   UNL     1     -12.367  -4.959  17.792  0.00  0.00    +0.000 HD
ENDROOT
BRANCH   6  11
ATOM     11  C   UNL     1     -10.809  -3.726  18.339  0.00  0.00    +0.000 C 
ATOM     12  H   UNL     1      -9.889  -3.580  17.759  0.00  0.00    +0.000 HD
ATOM     13  H   UNL     1     -10.572  -3.654  19.408  0.00  0.00    +0.000 HD
BRANCH  11  14
ATOM     14  C   UNL     1     -11.786  -2.612  17.951  0.00  0.00    +0.000 C 
ATOM     15  C   UNL     1     -12.203  -2.591  16.490  0.00  0.00    +0.000 C 
ATOM     16  C   UNL     1     -12.588  -1.143  16.306  0.00  0.00    +0.000 C 
ATOM     17  C   UNL     1     -11.584  -0.420  17.179  0.00  0.00    +0.000 C 
ATOM     18  O   UNL     1     -11.178  -1.331  18.212  0.00  0.00    +0.000 OA
ATOM     19  H   UNL     1     -12.676  -2.681  18.589  0.00  0.00    +0.000 HD
ATOM     20  H   UNL     1     -13.017  -3.287  16.270  0.00  0.00    +0.000 HD
ATOM     21  H   UNL     1     -11.366  -2.828  15.823  0.00  0.00    +0.000 HD
ATOM     22  H   UNL     1     -13.603  -0.977  16.685  0.00  0.00    +0.000 HD
ATOM     23  H   UNL     1     -12.556  -0.812  15.264  0.00  0.00    +0.000 HD
ATOM     24  H   UNL     1     -11.998   0.486  17.630  0.00  0.00    +0.000 HD
ATOM     25  H   UNL     1     -10.686  -0.151  16.614  0.00  0.00    +0.000 HD
ENDBRANCH  11  14
ENDBRANCH   6  11
BRANCH   7  26
ATOM     26  N   UNL     1     -12.089  -7.749  17.656  0.00  0.00    +0.000 N 
ATOM     27  H   UNL     1     -12.707  -8.268  17.024  0.00  0.00    +0.000 HD
ATOM     28  H   UNL     1     -12.637  -7.093  18.212  0.00  0.00    +0.000 HD
ENDBRANCH   7  26
BRANCH   1  29
ATOM     29  N   UNL     1     -10.643  -9.209  15.605  0.00  0.00    +0.000 N 
ATOM     30  H   UNL     1     -10.618  -9.337  14.588  0.00  0.00    +0.000 HD
BRANCH  29  35
ATOM     31  C   UNL     1      -8.607 -11.198  18.031  0.00  0.00    +0.000 A 
ATOM     32  C   UNL     1      -8.287 -12.304  17.240  0.00  0.00    +0.000 A 
ATOM     33  C   UNL     1      -8.724 -12.387  15.912  0.00  0.00    +0.000 A 
ATOM     34  C   UNL     1      -9.511 -11.356  15.378  0.00  0.00    +0.000 A 
ATOM     35  C   UNL     1      -9.880 -10.266  16.171  0.00  0.00    +0.000 A 
ATOM     36  C   UNL     1      -9.377 -10.174  17.478  0.00  0.00    +0.000 A 
ATOM     37  H   UNL     1      -7.669 -13.101  17.655  0.00  0.00    +0.000 HD
ATOM     38  H   UNL     1      -9.843 -11.418  14.342  0.00  0.00    +0.000 HD
ATOM     39  H   UNL     1      -9.554  -9.288  18.083  0.00  0.00    +0.000 HD
BRANCH  31  40
ATOM     40  C   UNL     1      -8.118 -11.071  19.446  0.00  0.00    +0.000 C 
ATOM     41  H   UNL     1      -8.724 -11.665  20.135  0.00  0.00    +0.000 HD
ATOM     42  H   UNL     1      -8.170 -10.024  19.764  0.00  0.00    +0.000 HD
ATOM     43  H   UNL     1      -7.082 -11.414  19.513  0.00  0.00    +0.000 HD
ENDBRANCH  31  40
BRANCH  33  44
ATOM     44  C   UNL     1      -8.340 -13.557  15.054  0.00  0.00    +0.000 C 
ATOM     45  H   UNL     1      -7.960 -13.234  14.078  0.00  0.00    +0.000 HD
ATOM     46  H   UNL     1      -9.208 -14.200  14.877  0.00  0.00    +0.000 HD
ATOM     47  H   UNL     1      -7.552 -14.141  15.541  0.00  0.00    +0.000 HD
ENDBRANCH  33  44
ENDBRANCH  29  35
ENDBRANCH   1  29
TORSDOF 7
ENDMDL
MODEL 6
REMARK VINA RESULT:    -9.397      2.281      3.603
REMARK INTER + INTRA:         -12.758
REMARK INTER:                 -12.300
REMARK INTRA:                  -0.457
REMARK UNBOUND:                -0.339
REMARK  Name = 
REMARK  7 active torsions:
REMARK  status: ('A' for Active; 'I' for Inactive)
REMARK    1  A    between atoms: C_1  and  C_2
REMARK    2  A    between atoms: C_4  and  C_5
REMARK    3  A    between atoms: C_7  and  N_8
REMARK    4  A    between atoms: N_8  and  C_9
REMARK    5  A    between atoms: N_14  and  C_15
REMARK    6  A    between atoms: C_15  and  C_16
REMARK    7  A    between atoms: C_21  and  N_22
REMARK                            x       y       z     vdW  Elec       q    Type
REMARK                         _______ _______ _______ _____ _____    ______ ____
ROOT
ATOM      1  C   UNL     1     -10.356  -7.818  15.881  0.00  0.00    +0.000 A 
ATOM      2  N   UNL     1      -9.443  -7.182  15.136  0.00  0.00    +0.000 N 
ATOM      3  C   UNL     1      -9.199  -5.893  15.326  0.00  0.00    +0.000 A 
ATOM      4  N   UNL     1      -9.786  -5.145  16.268  0.00  0.00    +0.000 NA
ATOM      5  C   UNL     1     -10.692  -5.758  17.052  0.00  0.00    +0.000 A 
ATOM      6  N   UNL     1     -11.356  -5.020  18.045  0.00  0.00    +0.000 N 
ATOM      7  C   UNL     1     -10.996  -7.130  16.927  0.00  0.00    +0.000 A 
ATOM      8  H   UNL     1      -8.962  -7.710  14.416  0.00  0.00    +0.000 HD
ATOM      9  H   UNL     1      -8.500  -5.411  14.653  0.00  0.00    +0.000 HD
ATOM     10  H   UNL     1     -12.346  -4.935  17.801  0.00  0.00    +0.000 HD
ENDROOT
BRANCH   6  11
ATOM     11  C   UNL     1     -10.792  -3.685  18.318  0.00  0.00    +0.000 C 
ATOM     12  H   UNL     1      -9.871  -3.542  17.738  0.00  0.00    +0.000 HD
ATOM     13  H   UNL     1     -10.558  -3.598  19.386  0.00  0.00    +0.000 HD
BRANCH  11  14
ATOM     14  C   UNL     1     -11.774  -2.582  17.913  0.00  0.00    +0.000 C 
ATOM     15  C   UNL     1     -12.247  -2.628  16.469  0.00  0.00    +0.000 C 
ATOM     16  C   UNL     1     -12.627  -1.187  16.229  0.00  0.00    +0.000 C 
ATOM     17  C   UNL     1     -11.583  -0.432  17.027  0.00  0.00    +0.000 C 
ATOM     18  O   UNL     1     -11.146  -1.295  18.087  0.00  0.00    +0.000 OA
ATOM     19  H   UNL     1     -12.639  -2.610  18.587  0.00  0.00    +0.000 HD
ATOM     20  H   UNL     1     -13.075  -3.325  16.315  0.00  0.00    +0.000 HD
ATOM     21  H   UNL     1     -11.438  -2.905  15.784  0.00  0.00    +0.000 HD
ATOM     22  H   UNL     1     -13.625  -0.992  16.638  0.00  0.00    +0.000 HD
ATOM     23  H   UNL     1     -12.632  -0.907  15.172  0.00  0.00    +0.000 HD
ATOM     24  H   UNL     1     -11.972   0.500  17.448  0.00  0.00    +0.000 HD
ATOM     25  H   UNL     1     -10.706  -0.200  16.415  0.00  0.00    +0.000 HD
ENDBRANCH  11  14
ENDBRANCH   6  11
BRANCH   7  26
ATOM     26  N   UNL     1     -12.044  -7.723  17.673  0.00  0.00    +0.000 N 
ATOM     27  H   UNL     1     -12.202  -7.202  18.541  0.00  0.00    +0.000 HD
ATOM     28  H   UNL     1     -11.911  -8.711  17.884  0.00  0.00    +0.000 HD
ENDBRANCH   7  26
BRANCH   1  29
ATOM     29  N   UNL     1     -10.618  -9.179  15.606  0.00  0.00    +0.000 N 
ATOM     30  H   UNL     1     -10.664  -9.300  14.588  0.00  0.00    +0.000 HD
BRANCH  29  35
ATOM     31  C   UNL     1      -8.722 -12.395  15.821  0.00  0.00    +0.000 A 
ATOM     32  C   UNL     1      -8.261 -12.326  17.138  0.00  0.00    +0.000 A 
ATOM     33  C   UNL     1      -8.586 -11.236  17.955  0.00  0.00    +0.000 A 
ATOM     34  C   UNL     1      -9.365 -10.191  17.436  0.00  0.00    +0.000 A 
ATOM     35  C   UNL     1      -9.794 -10.223  16.107  0.00  0.00    +0.000 A 
ATOM     36  C   UNL     1      -9.510 -11.355  15.328  0.00  0.00    +0.000 A 
ATOM     37  H   UNL     1      -7.661 -13.142  17.542  0.00  0.00    +0.000 HD
ATOM     38  H   UNL     1      -9.625  -9.348  18.076  0.00  0.00    +0.000 HD
ATOM     39  H   UNL     1      -9.921 -11.461  14.327  0.00  0.00    +0.000 HD
BRANCH  31  40
ATOM     40  C   UNL     1      -8.417 -13.573  14.940  0.00  0.00    +0.000 C 
ATOM     41  H   UNL     1      -8.690 -13.377  13.899  0.00  0.00    +0.000 HD
ATOM     42  H   UNL     1      -8.983 -14.447  15.280  0.00  0.00    +0.000 HD
ATOM     43  H   UNL     1      -7.349 -13.800  14.979  0.00  0.00    +0.000 HD
ENDBRANCH  31  40
BRANCH  33  44
ATOM     44  C   UNL     1      -8.124 -11.187  19.383  0.00  0.00    +0.000 C 
ATOM     45  H   UNL     1      -8.928 -11.460  20.076  0.00  0.00    +0.000 HD
ATOM     46  H   UNL     1      -7.790 -10.177  19.641  0.00  0.00    +0.000 HD
ATOM     47  H   UNL     1      -7.299 -11.891  19.537  0.00  0.00    +0.000 HD
ENDBRANCH  33  44
ENDBRANCH  29  35
ENDBRANCH   1  29
TORSDOF 7
ENDMDL
MODEL 7
REMARK VINA RESULT:    -9.140      2.082      3.235
REMARK INTER + INTRA:         -12.418
REMARK INTER:                 -12.022
REMARK INTRA:                  -0.396
REMARK UNBOUND:                -0.339
REMARK  Name = 
REMARK  7 active torsions:
REMARK  status: ('A' for Active; 'I' for Inactive)
REMARK    1  A    between atoms: C_1  and  C_2
REMARK    2  A    between atoms: C_4  and  C_5
REMARK    3  A    between atoms: C_7  and  N_8
REMARK    4  A    between atoms: N_8  and  C_9
REMARK    5  A    between atoms: N_14  and  C_15
REMARK    6  A    between atoms: C_15  and  C_16
REMARK    7  A    between atoms: C_21  and  N_22
REMARK                            x       y       z     vdW  Elec       q    Type
REMARK                         _______ _______ _______ _____ _____    ______ ____
ROOT
ATOM      1  C   UNL     1      -8.275  -6.022  18.107  0.00  0.00    +0.000 A 
ATOM      2  N   UNL     1      -6.954  -6.242  18.124  0.00  0.00    +0.000 N 
ATOM      3  C   UNL     1      -6.194  -5.698  19.065  0.00  0.00    +0.000 A 
ATOM      4  N   UNL     1      -6.660  -4.946  20.069  0.00  0.00    +0.000 NA
ATOM      5  C   UNL     1      -7.987  -4.724  20.097  0.00  0.00    +0.000 A 
ATOM      6  N   UNL     1      -8.532  -3.925  21.114  0.00  0.00    +0.000 N 
ATOM      7  C   UNL     1      -8.866  -5.280  19.144  0.00  0.00    +0.000 A 
ATOM      8  H   UNL     1      -6.555  -6.817  17.390  0.00  0.00    +0.000 HD
ATOM      9  H   UNL     1      -5.124  -5.852  18.996  0.00  0.00    +0.000 HD
ATOM     10  H   UNL     1      -8.887  -3.054  20.710  0.00  0.00    +0.000 HD
ENDROOT
BRANCH   6  11
ATOM     11  C   UNL     1      -7.617  -3.620  22.230  0.00  0.00    +0.000 C 
ATOM     12  H   UNL     1      -6.726  -3.100  21.854  0.00  0.00    +0.000 HD
ATOM     13  H   UNL     1      -7.307  -4.554  22.714  0.00  0.00    +0.000 HD
BRANCH  11  14
ATOM     14  C   UNL     1      -8.292  -2.706  23.258  0.00  0.00    +0.000 C 
ATOM     15  C   UNL     1      -8.578  -3.342  24.608  0.00  0.00    +0.000 C 
ATOM     16  C   UNL     1      -9.722  -2.493  25.106  0.00  0.00    +0.000 C 
ATOM     17  C   UNL     1     -10.494  -2.200  23.837  0.00  0.00    +0.000 C 
ATOM     18  O   UNL     1      -9.566  -2.268  22.743  0.00  0.00    +0.000 OA
ATOM     19  H   UNL     1      -7.676  -1.808  23.394  0.00  0.00    +0.000 HD
ATOM     20  H   UNL     1      -7.711  -3.334  25.273  0.00  0.00    +0.000 HD
ATOM     21  H   UNL     1      -8.918  -4.378  24.507  0.00  0.00    +0.000 HD
ATOM     22  H   UNL     1      -9.335  -1.560  25.533  0.00  0.00    +0.000 HD
ATOM     23  H   UNL     1     -10.333  -2.986  25.866  0.00  0.00    +0.000 HD
ATOM     24  H   UNL     1     -10.970  -1.215  23.855  0.00  0.00    +0.000 HD
ATOM     25  H   UNL     1     -11.264  -2.956  23.656  0.00  0.00    +0.000 HD
ENDBRANCH  11  14
ENDBRANCH   6  11
BRANCH   7  26
ATOM     26  N   UNL     1     -10.239  -4.929  19.115  0.00  0.00    +0.000 N 
ATOM     27  H   UNL     1     -10.510  -4.483  19.998  0.00  0.00    +0.000 HD
ATOM     28  H   UNL     1     -10.872  -5.701  18.911  0.00  0.00    +0.000 HD
ENDBRANCH   7  26
BRANCH   1  29
ATOM     29  N   UNL     1      -9.034  -6.580  17.054  0.00  0.00    +0.000 N 
ATOM     30  H   UNL     1      -8.725  -6.157  16.172  0.00  0.00    +0.000 HD
BRANCH  29  35
ATOM     31  C   UNL     1      -8.893 -10.268  17.660  0.00  0.00    +0.000 A 
ATOM     32  C   UNL     1      -9.139 -10.742  16.369  0.00  0.00    +0.000 A 
ATOM     33  C   UNL     1      -9.333  -9.855  15.304  0.00  0.00    +0.000 A 
ATOM     34  C   UNL     1      -9.302  -8.473  15.541  0.00  0.00    +0.000 A 
ATOM     35  C   UNL     1      -9.105  -7.982  16.834  0.00  0.00    +0.000 A 
ATOM     36  C   UNL     1      -8.849  -8.890  17.874  0.00  0.00    +0.000 A 
ATOM     37  H   UNL     1      -9.156 -11.817  16.185  0.00  0.00    +0.000 HD
ATOM     38  H   UNL     1      -9.445  -7.784  14.710  0.00  0.00    +0.000 HD
ATOM     39  H   UNL     1      -8.583  -8.539  18.868  0.00  0.00    +0.000 HD
BRANCH  31  40
ATOM     40  C   UNL     1      -8.644 -11.202  18.810  0.00  0.00    +0.000 C 
ATOM     41  H   UNL     1      -8.896 -12.234  18.551  0.00  0.00    +0.000 HD
ATOM     42  H   UNL     1      -9.260 -10.907  19.667  0.00  0.00    +0.000 HD
ATOM     43  H   UNL     1      -7.589 -11.166  19.097  0.00  0.00    +0.000 HD
ENDBRANCH  31  40
BRANCH  33  44
ATOM     44  C   UNL     1      -9.554 -10.370  13.911  0.00  0.00    +0.000 C 
ATOM     45  H   UNL     1      -9.146  -9.686  13.159  0.00  0.00    +0.000 HD
ATOM     46  H   UNL     1     -10.625 -10.484  13.713  0.00  0.00    +0.000 HD
ATOM     47  H   UNL     1      -9.059 -11.338  13.783  0.00  0.00    +0.000 HD
ENDBRANCH  33  44
ENDBRANCH  29  35
ENDBRANCH   1  29
TORSDOF 7
ENDMDL
MODEL 8
REMARK VINA RESULT:    -9.104      2.631      4.359
REMARK INTER + INTRA:         -12.370
REMARK INTER:                 -11.857
REMARK INTRA:                  -0.513
REMARK UNBOUND:                -0.339
REMARK  Name = 
REMARK  7 active torsions:
REMARK  status: ('A' for Active; 'I' for Inactive)
REMARK    1  A    between atoms: C_1  and  C_2
REMARK    2  A    between atoms: C_4  and  C_5
REMARK    3  A    between atoms: C_7  and  N_8
REMARK    4  A    between atoms: N_8  and  C_9
REMARK    5  A    between atoms: N_14  and  C_15
REMARK    6  A    between atoms: C_15  and  C_16
REMARK    7  A    between atoms: C_21  and  N_22
REMARK                            x       y       z     vdW  Elec       q    Type
REMARK                         _______ _______ _______ _____ _____    ______ ____
ROOT
ATOM      1  C   UNL     1      -9.617  -7.497  18.600  0.00  0.00    +0.000 A 
ATOM      2  N   UNL     1      -8.543  -6.718  18.779  0.00  0.00    +0.000 N 
ATOM      3  C   UNL     1      -8.551  -5.457  18.370  0.00  0.00    +0.000 A 
ATOM      4  N   UNL     1      -9.603  -4.855  17.803  0.00  0.00    +0.000 NA
ATOM      5  C   UNL     1     -10.709  -5.601  17.630  0.00  0.00    +0.000 A 
ATOM      6  N   UNL     1     -11.839  -5.031  17.021  0.00  0.00    +0.000 N 
ATOM      7  C   UNL     1     -10.788  -6.945  18.052  0.00  0.00    +0.000 A 
ATOM      8  H   UNL     1      -7.723  -7.126  19.216  0.00  0.00    +0.000 HD
ATOM      9  H   UNL     1      -7.635  -4.888  18.479  0.00  0.00    +0.000 HD
ATOM     10  H   UNL     1     -11.991  -5.469  16.109  0.00  0.00    +0.000 HD
ENDROOT
BRANCH   6  11
ATOM     11  C   UNL     1     -11.797  -3.565  16.872  0.00  0.00    +0.000 C 
ATOM     12  H   UNL     1     -10.941  -3.155  17.423  0.00  0.00    +0.000 HD
ATOM     13  H   UNL     1     -12.721  -3.130  17.273  0.00  0.00    +0.000 HD
BRANCH  11  14
ATOM     14  C   UNL     1     -11.637  -3.168  15.401  0.00  0.00    +0.000 C 
ATOM     15  C   UNL     1     -11.779  -4.303  14.400  0.00  0.00    +0.000 C 
ATOM     16  C   UNL     1     -10.989  -3.774  13.228  0.00  0.00    +0.000 C 
ATOM     17  C   UNL     1      -9.854  -3.030  13.902  0.00  0.00    +0.000 C 
ATOM     18  O   UNL     1     -10.321  -2.616  15.195  0.00  0.00    +0.000 OA
ATOM     19  H   UNL     1     -12.358  -2.375  15.165  0.00  0.00    +0.000 HD
ATOM     20  H   UNL     1     -12.821  -4.526  14.155  0.00  0.00    +0.000 HD
ATOM     21  H   UNL     1     -11.311  -5.226  14.761  0.00  0.00    +0.000 HD
ATOM     22  H   UNL     1     -11.604  -3.075  12.650  0.00  0.00    +0.000 HD
ATOM     23  H   UNL     1     -10.635  -4.556  12.551  0.00  0.00    +0.000 HD
ATOM     24  H   UNL     1      -9.530  -2.156  13.331  0.00  0.00    +0.000 HD
ATOM     25  H   UNL     1      -8.991  -3.683  14.064  0.00  0.00    +0.000 HD
ENDBRANCH  11  14
ENDBRANCH   6  11
BRANCH   7  26
ATOM     26  N   UNL     1     -11.913  -7.750  17.743  0.00  0.00    +0.000 N 
ATOM     27  H   UNL     1     -11.771  -8.705  18.085  0.00  0.00    +0.000 HD
ATOM     28  H   UNL     1     -12.162  -7.771  16.755  0.00  0.00    +0.000 HD
ENDBRANCH   7  26
BRANCH   1  29
ATOM     29  N   UNL     1      -9.541  -8.848  19.005  0.00  0.00    +0.000 N 
ATOM     30  H   UNL     1     -10.438  -9.111  19.427  0.00  0.00    +0.000 HD
BRANCH  29  35
ATOM     31  C   UNL     1      -8.910 -10.705  15.820  0.00  0.00    +0.000 A 
ATOM     32  C   UNL     1      -8.610 -11.973  16.326  0.00  0.00    +0.000 A 
ATOM     33  C   UNL     1      -8.631 -12.218  17.704  0.00  0.00    +0.000 A 
ATOM     34  C   UNL     1      -8.937 -11.173  18.588  0.00  0.00    +0.000 A 
ATOM     35  C   UNL     1      -9.192  -9.889  18.102  0.00  0.00    +0.000 A 
ATOM     36  C   UNL     1      -9.228  -9.682  16.714  0.00  0.00    +0.000 A 
ATOM     37  H   UNL     1      -8.380 -12.786  15.637  0.00  0.00    +0.000 HD
ATOM     38  H   UNL     1      -8.962 -11.368  19.659  0.00  0.00    +0.000 HD
ATOM     39  H   UNL     1      -9.530  -8.723  16.300  0.00  0.00    +0.000 HD
BRANCH  31  40
ATOM     40  C   UNL     1      -8.930 -10.429  14.344  0.00  0.00    +0.000 C 
ATOM     41  H   UNL     1      -8.648 -11.313  13.766  0.00  0.00    +0.000 HD
ATOM     42  H   UNL     1      -8.220  -9.628  14.107  0.00  0.00    +0.000 HD
ATOM     43  H   UNL     1      -9.933 -10.121  14.037  0.00  0.00    +0.000 HD
ENDBRANCH  31  40
BRANCH  33  44
ATOM     44  C   UNL     1      -8.351 -13.593  18.239  0.00  0.00    +0.000 C 
ATOM     45  H   UNL     1      -9.097 -14.319  17.896  0.00  0.00    +0.000 HD
ATOM     46  H   UNL     1      -8.369 -13.587  19.333  0.00  0.00    +0.000 HD
ATOM     47  H   UNL     1      -7.370 -13.939  17.896  0.00  0.00    +0.000 HD
ENDBRANCH  33  44
ENDBRANCH  29  35
ENDBRANCH   1  29
TORSDOF 7
ENDMDL
MODEL 9
REMARK VINA RESULT:    -9.066      2.622      4.167
REMARK INTER + INTRA:         -12.320
REMARK INTER:                 -11.862
REMARK INTRA:                  -0.458
REMARK UNBOUND:                -0.339
REMARK  Name = 
REMARK  7 active torsions:
REMARK  status: ('A' for Active; 'I' for Inactive)
REMARK    1  A    between atoms: C_1  and  C_2
REMARK    2  A    between atoms: C_4  and  C_5
REMARK    3  A    between atoms: C_7  and  N_8
REMARK    4  A    between atoms: N_8  and  C_9
REMARK    5  A    between atoms: N_14  and  C_15
REMARK    6  A    between atoms: C_15  and  C_16
REMARK    7  A    between atoms: C_21  and  N_22
REMARK                            x       y       z     vdW  Elec       q    Type
REMARK                         _______ _______ _______ _____ _____    ______ ____
ROOT
ATOM      1  C   UNL     1      -9.527  -7.482  18.671  0.00  0.00    +0.000 A 
ATOM      2  N   UNL     1      -8.449  -6.700  18.812  0.00  0.00    +0.000 N 
ATOM      3  C   UNL     1      -8.476  -5.438  18.407  0.00  0.00    +0.000 A 
ATOM      4  N   UNL     1      -9.549  -4.838  17.881  0.00  0.00    +0.000 NA
ATOM      5  C   UNL     1     -10.659  -5.587  17.745  0.00  0.00    +0.000 A 
ATOM      6  N   UNL     1     -11.811  -5.018  17.180  0.00  0.00    +0.000 N 
ATOM      7  C   UNL     1     -10.719  -6.932  18.167  0.00  0.00    +0.000 A 
ATOM      8  H   UNL     1      -7.613  -7.107  19.219  0.00  0.00    +0.000 HD
ATOM      9  H   UNL     1      -7.558  -4.867  18.484  0.00  0.00    +0.000 HD
ATOM     10  H   UNL     1     -11.996  -5.454  16.272  0.00  0.00    +0.000 HD
ENDROOT
BRANCH   6  11
ATOM     11  C   UNL     1     -11.780  -3.552  17.033  0.00  0.00    +0.000 C 
ATOM     12  H   UNL     1     -10.906  -3.141  17.556  0.00  0.00    +0.000 HD
ATOM     13  H   UNL     1     -12.690  -3.121  17.466  0.00  0.00    +0.000 HD
BRANCH  11  14
ATOM     14  C   UNL     1     -11.670  -3.151  15.558  0.00  0.00    +0.000 C 
ATOM     15  C   UNL     1     -11.753  -4.297  14.564  0.00  0.00    +0.000 C 
ATOM     16  C   UNL     1     -11.019  -3.722  13.377  0.00  0.00    +0.000 C 
ATOM     17  C   UNL     1      -9.925  -2.902  14.030  0.00  0.00    +0.000 C 
ATOM     18  O   UNL     1     -10.396  -2.514  15.329  0.00  0.00    +0.000 OA
ATOM     19  H   UNL     1     -12.445  -2.408  15.333  0.00  0.00    +0.000 HD
ATOM     20  H   UNL     1     -12.782  -4.588  14.336  0.00  0.00    +0.000 HD
ATOM     21  H   UNL     1     -11.220  -5.185  14.919  0.00  0.00    +0.000 HD
ATOM     22  H   UNL     1     -11.688  -3.066  12.807  0.00  0.00    +0.000 HD
ATOM     23  H   UNL     1     -10.626  -4.481  12.696  0.00  0.00    +0.000 HD
ATOM     24  H   UNL     1      -9.668  -2.011  13.451  0.00  0.00    +0.000 HD
ATOM     25  H   UNL     1      -9.018  -3.496  14.179  0.00  0.00    +0.000 HD
ENDBRANCH  11  14
ENDBRANCH   6  11
BRANCH   7  26
ATOM     26  N   UNL     1     -11.852  -7.739  17.897  0.00  0.00    +0.000 N 
ATOM     27  H   UNL     1     -12.439  -7.299  17.181  0.00  0.00    +0.000 HD
ATOM     28  H   UNL     1     -12.418  -7.966  18.714  0.00  0.00    +0.000 HD
ENDBRANCH   7  26
BRANCH   1  29
ATOM     29  N   UNL     1      -9.432  -8.834  19.069  0.00  0.00    +0.000 N 
ATOM     30  H   UNL     1     -10.285  -9.080  19.584  0.00  0.00    +0.000 HD
BRANCH  29  35
ATOM     31  C   UNL     1      -8.652 -12.211  17.664  0.00  0.00    +0.000 A 
ATOM     32  C   UNL     1      -8.635 -11.915  16.299  0.00  0.00    +0.000 A 
ATOM     33  C   UNL     1      -8.863 -10.610  15.844  0.00  0.00    +0.000 A 
ATOM     34  C   UNL     1      -9.133  -9.593  16.772  0.00  0.00    +0.000 A 
ATOM     35  C   UNL     1      -9.200  -9.881  18.137  0.00  0.00    +0.000 A 
ATOM     36  C   UNL     1      -8.905 -11.183  18.573  0.00  0.00    +0.000 A 
ATOM     37  H   UNL     1      -8.419 -12.706  15.580  0.00  0.00    +0.000 HD
ATOM     38  H   UNL     1      -9.301  -8.577  16.417  0.00  0.00    +0.000 HD
ATOM     39  H   UNL     1      -8.840 -11.415  19.633  0.00  0.00    +0.000 HD
BRANCH  31  40
ATOM     40  C   UNL     1      -8.373 -13.596  18.175  0.00  0.00    +0.000 C 
ATOM     41  H   UNL     1      -7.315 -13.855  18.075  0.00  0.00    +0.000 HD
ATOM     42  H   UNL     1      -8.957 -14.326  17.605  0.00  0.00    +0.000 HD
ATOM     43  H   UNL     1      -8.646 -13.664  19.231  0.00  0.00    +0.000 HD
ENDBRANCH  31  40
BRANCH  33  44
ATOM     44  C   UNL     1      -8.802 -10.290  14.379  0.00  0.00    +0.000 C 
ATOM     45  H   UNL     1      -9.729 -10.571  13.866  0.00  0.00    +0.000 HD
ATOM     46  H   UNL     1      -7.981 -10.837  13.904  0.00  0.00    +0.000 HD
ATOM     47  H   UNL     1      -8.653  -9.216  14.232  0.00  0.00    +0.000 HD
ENDBRANCH  33  44
ENDBRANCH  29  35
ENDBRANCH   1  29
TORSDOF 7
ENDMDL
