REMARK  Name = 
REMARK  9 active torsions:
REMARK  status: ('A' for Active; 'I' for Inactive)
REMARK    1  A    between atoms: C_1  and  N_2
REMARK    2  A    between atoms: N_2  and  C_3
REMARK    3  A    between atoms: N_2  and  C_9
REMARK    4  A    between atoms: N_14  and  C_15
REMARK    5  A    between atoms: C_17  and  C_18
REMARK    6  A    between atoms: C_17  and  C_19
REMARK    7  A    between atoms: C_21  and  C_22
REMARK    8  A    between atoms: C_21  and  C_23
REMARK    9  A    between atoms: C_25  and  N_26
REMARK                            x       y       z     vdW  Elec       q    Type
REMARK                         _______ _______ _______ _____ _____    ______ ____
ROOT
ATOM      1  C   UNL     1       0.307   1.657   0.815  0.00  0.00    +0.000 C 
ATOM      2  C   UNL     1       0.934   2.071   2.154  0.00  0.00    +0.000 C 
ATOM      3  C   UNL     1       1.652   3.414   2.110  0.00  0.00    +0.000 C 
ATOM      4  N   UNL     1       0.748   4.443   1.471  0.00  0.00    +0.000 N 
ATOM      5  C   UNL     1      -0.017   4.108   0.203  0.00  0.00    +0.000 C 
ATOM      6  C   UNL     1      -0.678   2.734   0.354  0.00  0.00    +0.000 C 
ATOM      7  H   UNL     1       1.104   1.502   0.078  0.00  0.00    +0.000 HD
ATOM      8  H   UNL     1       1.633   1.292   2.489  0.00  0.00    +0.000 HD
ATOM      9  H   UNL     1       0.143   2.099   2.919  0.00  0.00    +0.000 HD
ATOM     10  H   UNL     1       1.275   5.316   1.326  0.00  0.00    +0.000 HD
ATOM     11  H   UNL     1       0.038   4.690   2.178  0.00  0.00    +0.000 HD
ATOM     12  H   UNL     1      -1.143   2.455  -0.599  0.00  0.00    +0.000 HD
ATOM     13  H   UNL     1      -1.506   2.796   1.075  0.00  0.00    +0.000 HD
ENDROOT
BRANCH   1  19
ATOM     14  C   UNL     1      -0.865  -2.719  -0.809  0.00  0.00    +0.000 A 
ATOM     15  N   UNL     1      -0.885  -2.190  -2.055  0.00  0.00    +0.000 NA
ATOM     16  C   UNL     1      -0.788  -0.866  -2.233  0.00  0.00    +0.000 A 
ATOM     17  N   UNL     1      -0.636   0.051  -1.279  0.00  0.00    +0.000 NA
ATOM     18  C   UNL     1      -0.589  -0.455  -0.047  0.00  0.00    +0.000 A 
ATOM     19  N   UNL     1      -0.382   0.401   1.082  0.00  0.00    +0.000 N 
ATOM     20  C   UNL     1      -0.732  -1.839   0.282  0.00  0.00    +0.000 A 
ATOM     21  H   UNL     1      -0.835  -0.514  -3.259  0.00  0.00    +0.000 HD
ATOM     22  H   UNL     1       0.194  -0.201   1.684  0.00  0.00    +0.000 HD
BRANCH  20  23
ATOM     23  N   UNL     1      -0.492  -2.135   1.655  0.00  0.00    +0.000 N 
ATOM     24  H   UNL     1      -1.055  -1.501   2.228  0.00  0.00    +0.000 HD
ATOM     25  H   UNL     1      -0.632  -3.077   1.966  0.00  0.00    +0.000 HD
ENDBRANCH  20  23
BRANCH  14  26
ATOM     26  N   UNL     1      -0.984  -4.129  -0.713  0.00  0.00    +0.000 N 
BRANCH  26  27
ATOM     27  C   UNL     1      -1.025  -5.051  -1.804  0.00  0.00    +0.000 A 
ATOM     28  C   UNL     1      -1.707  -4.765  -2.998  0.00  0.00    +0.000 A 
ATOM     29  C   UNL     1      -1.705  -5.657  -4.077  0.00  0.00    +0.000 A 
ATOM     30  C   UNL     1      -1.039  -6.873  -3.978  0.00  0.00    +0.000 A 
ATOM     31  C   UNL     1      -0.382  -7.200  -2.798  0.00  0.00    +0.000 A 
ATOM     32  C   UNL     1      -0.370  -6.297  -1.732  0.00  0.00    +0.000 A 
ATOM     33  H   UNL     1      -2.267  -3.840  -3.105  0.00  0.00    +0.000 HD
ATOM     34  H   UNL     1      -2.227  -5.395  -4.994  0.00  0.00    +0.000 HD
ATOM     35  H   UNL     1      -1.029  -7.562  -4.818  0.00  0.00    +0.000 HD
ATOM     36  H   UNL     1       0.134  -8.152  -2.707  0.00  0.00    +0.000 HD
ATOM     37  H   UNL     1       0.188  -6.580  -0.843  0.00  0.00    +0.000 HD
ENDBRANCH  26  27
BRANCH  26  38
ATOM     38  C   UNL     1      -1.078  -4.785   0.585  0.00  0.00    +0.000 C 
ATOM     39  H   UNL     1      -1.396  -5.834   0.541  0.00  0.00    +0.000 HD
ATOM     40  H   UNL     1      -1.852  -4.318   1.204  0.00  0.00    +0.000 HD
ATOM     41  H   UNL     1      -0.103  -4.774   1.086  0.00  0.00    +0.000 HD
ENDBRANCH  26  38
ENDBRANCH  14  26
ENDBRANCH   1  19
BRANCH   3  42
ATOM     42  C   UNL     1       1.919   3.893   3.550  0.00  0.00    +0.000 C 
ATOM     43  H   UNL     1       2.571   3.189   4.081  0.00  0.00    +0.000 HD
ATOM     44  H   UNL     1       0.991   3.975   4.127  0.00  0.00    +0.000 HD
ATOM     45  H   UNL     1       2.407   4.873   3.560  0.00  0.00    +0.000 HD
ENDBRANCH   3  42
BRANCH   3  46
ATOM     46  C   UNL     1       2.997   3.340   1.380  0.00  0.00    +0.000 C 
ATOM     47  H   UNL     1       3.708   2.731   1.953  0.00  0.00    +0.000 HD
ATOM     48  H   UNL     1       3.441   4.332   1.255  0.00  0.00    +0.000 HD
ATOM     49  H   UNL     1       2.929   2.870   0.399  0.00  0.00    +0.000 HD
ENDBRANCH   3  46
BRANCH   5  50
ATOM     50  C   UNL     1      -1.101   5.192   0.059  0.00  0.00    +0.000 C 
ATOM     51  H   UNL     1      -0.656   6.191  -0.023  0.00  0.00    +0.000 HD
ATOM     52  H   UNL     1      -1.781   5.201   0.918  0.00  0.00    +0.000 HD
ATOM     53  H   UNL     1      -1.708   5.023  -0.839  0.00  0.00    +0.000 HD
ENDBRANCH   5  50
BRANCH   5  54
ATOM     54  C   UNL     1       0.909   4.199  -1.015  0.00  0.00    +0.000 C 
ATOM     55  H   UNL     1       1.482   5.133  -1.014  0.00  0.00    +0.000 HD
ATOM     56  H   UNL     1       0.327   4.172  -1.944  0.00  0.00    +0.000 HD
ATOM     57  H   UNL     1       1.615   3.371  -1.082  0.00  0.00    +0.000 HD
ENDBRANCH   5  54
TORSDOF 9
