REMARK  Name = 
REMARK  10 active torsions:
REMARK  status: ('A' for Active; 'I' for Inactive)
REMARK    1  A    between atoms: O_1  and  C_2
REMARK    2  A    between atoms: C_2  and  C_3
REMARK    3  A    between atoms: C_3  and  C_4
REMARK    4  A    between atoms: C_4  and  C_5
REMARK    5  A    between atoms: C_9  and  C_10
REMARK    6  A    between atoms: C_10  and  C_11
REMARK    7  A    between atoms: C_16  and  C_17
REMARK    8  A    between atoms: C_17  and  C_18
REMARK    9  A    between atoms: C_18  and  C_19
REMARK   10  A    between atoms: C_19  and  O_20
REMARK                            x       y       z     vdW  Elec       q    Type
REMARK                         _______ _______ _______ _____ _____    ______ ____
ROOT
ATOM      1  C   UNL     1       0.625   2.781  -0.967  0.00  0.00    +0.000 C 
ATOM      2  H   UNL     1      -0.299   3.328  -0.736  0.00  0.00    +0.000 HD
ATOM      3  H   UNL     1       1.294   3.529  -1.411  0.00  0.00    +0.000 HD
ENDROOT
BRANCH   1   4
ATOM      4  C   UNL     1       1.230   2.233   0.312  0.00  0.00    +0.000 A 
ATOM      5  C   UNL     1       2.641   2.156   0.440  0.00  0.00    +0.000 A 
ATOM      6  C   UNL     1       3.259   1.529   1.531  0.00  0.00    +0.000 A 
ATOM      7  C   UNL     1       2.399   0.986   2.471  0.00  0.00    +0.000 A 
ATOM      8  N   UNL     1       2.643   0.261   3.618  0.00  0.00    +0.000 N 
ATOM      9  C   UNL     1       1.500  -0.052   4.237  0.00  0.00    +0.000 A 
ATOM     10  N   UNL     1       0.508   0.454   3.494  0.00  0.00    +0.000 N 
ATOM     11  C   UNL     1       1.011   1.090   2.377  0.00  0.00    +0.000 A 
ATOM     12  C   UNL     1       0.379   1.715   1.313  0.00  0.00    +0.000 A 
ATOM     13  H   UNL     1       3.272   2.578  -0.345  0.00  0.00    +0.000 HD
ATOM     14  H   UNL     1       4.336   1.451   1.620  0.00  0.00    +0.000 HD
ATOM     15  H   UNL     1       3.567  -0.014   3.942  0.00  0.00    +0.000 HD
ATOM     16  H   UNL     1      -0.480   0.363   3.713  0.00  0.00    +0.000 HD
ATOM     17  H   UNL     1      -0.702   1.764   1.249  0.00  0.00    +0.000 HD
BRANCH   9  18
ATOM     18  C   UNL     1       1.367  -0.804   5.518  0.00  0.00    +0.000 C 
ATOM     19  H   UNL     1       1.775  -1.799   5.313  0.00  0.00    +0.000 HD
ATOM     20  H   UNL     1       0.290  -0.896   5.689  0.00  0.00    +0.000 HD
BRANCH  18  21
ATOM     21  C   UNL     1       2.076  -0.141   6.694  0.00  0.00    +0.000 C 
ATOM     22  H   UNL     1       1.680   0.875   6.811  0.00  0.00    +0.000 HD
ATOM     23  H   UNL     1       3.147  -0.047   6.483  0.00  0.00    +0.000 HD
BRANCH  21  24
ATOM     24  C   UNL     1       1.866  -0.921   7.979  0.00  0.00    +0.000 C 
ATOM     25  H   UNL     1       2.371  -0.440   8.822  0.00  0.00    +0.000 HD
ATOM     26  H   UNL     1       2.253  -1.940   7.883  0.00  0.00    +0.000 HD
BRANCH  24  27
ATOM     27  O   UNL     1       0.474  -0.992   8.243  0.00  0.00    +0.000 OA
ATOM     28  H   UNL     1       0.207  -0.160   8.673  0.00  0.00    +0.000 HD
ENDBRANCH  24  27
ENDBRANCH  21  24
ENDBRANCH  18  21
ENDBRANCH   9  18
ENDBRANCH   1   4
BRANCH   1  33
ATOM     29  C   UNL     1      -2.002  -1.593  -4.018  0.00  0.00    +0.000 A 
ATOM     30  N   UNL     1      -2.260  -0.804  -2.995  0.00  0.00    +0.000 NA
ATOM     31  C   UNL     1      -1.155  -0.004  -2.861  0.00  0.00    +0.000 A 
ATOM     32  C   UNL     1      -0.901   1.017  -1.936  0.00  0.00    +0.000 A 
ATOM     33  C   UNL     1       0.335   1.688  -1.973  0.00  0.00    +0.000 A 
ATOM     34  C   UNL     1       1.300   1.311  -2.923  0.00  0.00    +0.000 A 
ATOM     35  C   UNL     1       1.050   0.312  -3.876  0.00  0.00    +0.000 A 
ATOM     36  C   UNL     1      -0.193  -0.317  -3.812  0.00  0.00    +0.000 A 
ATOM     37  N   UNL     1      -0.777  -1.301  -4.568  0.00  0.00    +0.000 N 
ATOM     38  H   UNL     1      -1.669   1.266  -1.212  0.00  0.00    +0.000 HD
ATOM     39  H   UNL     1       2.269   1.807  -2.942  0.00  0.00    +0.000 HD
ATOM     40  H   UNL     1       1.792   0.043  -4.621  0.00  0.00    +0.000 HD
ATOM     41  H   UNL     1      -0.382  -1.742  -5.387  0.00  0.00    +0.000 HD
BRANCH  29  42
ATOM     42  C   UNL     1      -2.887  -2.655  -4.573  0.00  0.00    +0.000 C 
ATOM     43  H   UNL     1      -2.402  -3.161  -5.416  0.00  0.00    +0.000 HD
ATOM     44  H   UNL     1      -3.040  -3.416  -3.800  0.00  0.00    +0.000 HD
BRANCH  42  45
ATOM     45  C   UNL     1      -4.247  -2.101  -5.005  0.00  0.00    +0.000 C 
ATOM     46  H   UNL     1      -4.855  -2.943  -5.355  0.00  0.00    +0.000 HD
ATOM     47  H   UNL     1      -4.768  -1.658  -4.145  0.00  0.00    +0.000 HD
BRANCH  45  48
ATOM     48  C   UNL     1      -4.142  -1.068  -6.119  0.00  0.00    +0.000 C 
ATOM     49  H   UNL     1      -5.143  -0.748  -6.427  0.00  0.00    +0.000 HD
ATOM     50  H   UNL     1      -3.583  -0.182  -5.798  0.00  0.00    +0.000 HD
BRANCH  48  51
ATOM     51  O   UNL     1      -3.479  -1.640  -7.236  0.00  0.00    +0.000 OA
ATOM     52  H   UNL     1      -3.552  -0.997  -7.965  0.00  0.00    +0.000 HD
ENDBRANCH  48  51
ENDBRANCH  45  48
ENDBRANCH  42  45
ENDBRANCH  29  42
ENDBRANCH   1  33
TORSDOF 10
