
 OpenBabel01112423043D

 35 37  0  0  0  0  0  0  0  0999 V2000
   -1.8112    1.5492   -4.1728 C   0  0  0  0  0  0  0  0  0  0  0  0
   -2.0936    0.4748   -3.2052 C   0  0  0  0  0  0  0  0  0  0  0  0
   -1.8507    0.3080   -1.8651 C   0  0  0  0  0  0  0  0  0  0  0  0
   -2.3310   -0.9828   -1.5810 C   0  0  0  0  0  0  0  0  0  0  0  0
   -2.1953   -1.5720   -0.3701 N   0  0  0  0  0  0  0  0  0  0  0  0
   -2.3329   -2.9484   -0.1225 C   0  0  0  0  0  0  0  0  0  0  0  0
   -2.8870   -3.7266   -1.0632 N   0  3  0  0  0  0  0  0  0  0  0  0
   -2.9317   -5.0426   -0.9135 C   0  0  0  0  0  0  0  0  0  0  0  0
   -2.4517   -5.6879    0.1571 N   0  0  0  0  0  0  0  0  0  0  0  0
   -1.9003   -4.9390    1.1353 C   0  0  0  0  0  0  0  0  0  0  0  0
   -1.3703   -5.5828    2.2801 N   0  0  0  0  0  0  0  0  0  0  0  0
   -1.0915   -6.9606    2.3147 C   0  0  0  0  0  0  0  0  0  0  0  0
   -0.3238   -7.5507    1.3092 C   0  0  0  0  0  0  0  0  0  0  0  0
   -0.1244   -8.9296    1.3113 C   0  0  0  0  0  0  0  0  0  0  0  0
   -0.6778   -9.6785    2.3374 C   0  0  0  0  0  0  0  0  0  0  0  0
   -0.5061  -11.3842    2.3540 Cl  0  0  0  0  0  0  0  0  0  0  0  0
   -1.3831   -9.0139    3.3300 C   0  0  0  0  0  0  0  0  0  0  0  0
   -1.5920   -7.6685    3.3454 N   0  0  0  0  0  0  0  0  0  0  0  0
   -1.8417   -3.5343    1.0622 C   0  0  0  0  0  0  0  0  0  0  0  0
   -1.0973   -2.7757    1.9960 N   0  0  0  0  0  0  0  0  0  0  0  0
   -2.8716   -1.5575   -2.6655 N   0  0  0  0  0  0  0  0  0  0  0  0
   -2.7176   -0.6358   -3.6890 O   0  0  0  0  0  0  0  0  0  0  0  0
   -1.4401    2.4449   -3.6604 H   0  0  0  0  0  0  0  0  0  0  0  0
   -2.7111    1.8230   -4.7291 H   0  0  0  0  0  0  0  0  0  0  0  0
   -1.0440    1.2279   -4.8857 H   0  0  0  0  0  0  0  0  0  0  0  0
   -1.3630    1.0133   -1.2093 H   0  0  0  0  0  0  0  0  0  0  0  0
   -1.5974   -1.1242    0.3207 H   0  0  0  0  0  0  0  0  0  0  0  0
   -3.2190   -3.2798   -1.9212 H   0  0  0  0  0  0  0  0  0  0  0  0
   -3.3552   -5.6312   -1.7195 H   0  0  0  0  0  0  0  0  0  0  0  0
   -1.9376   -5.3926    3.1021 H   0  0  0  0  0  0  0  0  0  0  0  0
    0.1019   -6.9467    0.5145 H   0  0  0  0  0  0  0  0  0  0  0  0
    0.4456   -9.3969    0.5171 H   0  0  0  0  0  0  0  0  0  0  0  0
   -1.8210   -9.5566    4.1619 H   0  0  0  0  0  0  0  0  0  0  0  0
   -0.7830   -3.3225    2.8019 H   0  0  0  0  0  0  0  0  0  0  0  0
   -1.4835   -1.8813    2.2831 H   0  0  0  0  0  0  0  0  0  0  0  0
  1  2  1  0  0  0  0
  1 23  1  0  0  0  0
  1 24  1  0  0  0  0
  1 25  1  0  0  0  0
  2  3  2  0  0  0  0
  2 22  1  0  0  0  0
  3  4  1  0  0  0  0
  3 26  1  0  0  0  0
  4  5  1  0  0  0  0
  4 21  2  0  0  0  0
  5  6  1  0  0  0  0
  5 27  1  0  0  0  0
  6  7  1  0  0  0  0
  6 19  2  0  0  0  0
  7  8  2  0  0  0  0
  7 28  1  0  0  0  0
  8  9  1  0  0  0  0
  8 29  1  0  0  0  0
  9 10  2  0  0  0  0
 10 11  1  0  0  0  0
 10 19  1  0  0  0  0
 11 12  1  0  0  0  0
 11 30  1  0  0  0  0
 12 13  1  0  0  0  0
 12 18  2  0  0  0  0
 13 14  2  0  0  0  0
 13 31  1  0  0  0  0
 14 15  1  0  0  0  0
 14 32  1  0  0  0  0
 15 16  1  0  0  0  0
 15 17  2  0  0  0  0
 17 18  1  0  0  0  0
 17 33  1  0  0  0  0
 19 20  1  0  0  0  0
 20 34  1  0  0  0  0
 20 35  1  0  0  0  0
 21 22  1  0  0  0  0
M  CHG  1   7   1
M  END
$$$$
