MODEL 1
REMARK VINA RESULT:   -11.036      0.000      0.000
REMARK INTER + INTRA:         -14.734
REMARK INTER:                 -13.939
REMARK INTRA:                  -0.795
REMARK UNBOUND:                -0.795
REMARK  Name = 
REMARK  5 active torsions:
REMARK  status: ('A' for Active; 'I' for Inactive)
REMARK    1  A    between atoms: C_1  and  S_2
REMARK    2  A    between atoms: S_2  and  C_3
REMARK    3  A    between atoms: C_7  and  C_8
REMARK    4  A    between atoms: C_13  and  C_14
REMARK    5  A    between atoms: C_27  and  C_28
REMARK                            x       y       z     vdW  Elec       q    Type
REMARK                         _______ _______ _______ _____ _____    ______ ____
ROOT
ATOM      1  C   UNL     1     -10.883  -4.691  16.254  0.00  0.00    +0.000 C 
ATOM      2  O   UNL     1     -11.233  -5.772  15.788  0.00  0.00    +0.000 OA
ATOM      3  N   UNL     1      -9.979  -4.492  17.279  0.00  0.00    +0.000 N 
ATOM      4  C   UNL     1      -9.395  -5.529  17.953  0.00  0.00    +0.000 A 
ATOM      5  N   UNL     1      -9.452  -6.798  17.683  0.00  0.00    +0.000 NA
ATOM      6  C   UNL     1      -8.790  -7.556  18.650  0.00  0.00    +0.000 A 
ATOM      7  C   UNL     1      -8.242  -6.801  19.667  0.00  0.00    +0.000 A 
ATOM      8  S   UNL     1      -8.507  -5.117  19.350  0.00  0.00    +0.000 S 
ATOM      9  H   UNL     1      -9.768  -3.553  17.601  0.00  0.00    +0.000 HD
ATOM     10  H   UNL     1      -7.701  -7.115  20.546  0.00  0.00    +0.000 HD
ENDROOT
BRANCH   6  11
ATOM     11  C   UNL     1      -8.740  -9.007  18.471  0.00  0.00    +0.000 A 
ATOM     12  C   UNL     1      -8.462  -9.969  19.443  0.00  0.00    +0.000 A 
ATOM     13  C   UNL     1      -8.399 -11.337  19.084  0.00  0.00    +0.000 A 
ATOM     14  C   UNL     1      -8.586 -11.762  17.751  0.00  0.00    +0.000 A 
ATOM     15  C   UNL     1      -8.887 -10.802  16.796  0.00  0.00    +0.000 A 
ATOM     16  C   UNL     1      -8.977  -9.459  17.170  0.00  0.00    +0.000 A 
ATOM     17  C   UNL     1      -9.182 -11.100  15.365  0.00  0.00    +0.000 C 
ATOM     18  C   UNL     1      -8.761 -12.459  14.855  0.00  0.00    +0.000 C 
ATOM     19  C   UNL     1      -8.531 -13.563  15.878  0.00  0.00    +0.000 C 
ATOM     20  C   UNL     1      -8.502 -13.214  17.374  0.00  0.00    +0.000 C 
ATOM     21  H   UNL     1      -8.290  -9.693  20.480  0.00  0.00    +0.000 HD
ATOM     22  H   UNL     1      -8.195 -12.075  19.861  0.00  0.00    +0.000 HD
ATOM     23  H   UNL     1      -9.238  -8.739  16.394  0.00  0.00    +0.000 HD
ATOM     24  H   UNL     1     -10.258 -10.956  15.204  0.00  0.00    +0.000 HD
ATOM     25  H   UNL     1      -8.672 -10.346  14.750  0.00  0.00    +0.000 HD
ATOM     26  H   UNL     1      -7.841 -12.332  14.266  0.00  0.00    +0.000 HD
ATOM     27  H   UNL     1      -9.508 -12.789  14.122  0.00  0.00    +0.000 HD
ATOM     28  H   UNL     1      -7.582 -14.053  15.619  0.00  0.00    +0.000 HD
ATOM     29  H   UNL     1      -9.284 -14.345  15.716  0.00  0.00    +0.000 HD
ATOM     30  H   UNL     1      -7.575 -13.630  17.793  0.00  0.00    +0.000 HD
ATOM     31  H   UNL     1      -9.326 -13.748  17.863  0.00  0.00    +0.000 HD
ENDBRANCH   6  11
BRANCH   1  36
ATOM     32  C   UNL     1     -12.592  -1.085  14.571  0.00  0.00    +0.000 A 
ATOM     33  N   UNL     1     -12.441  -1.196  15.930  0.00  0.00    +0.000 N 
ATOM     34  C   UNL     1     -11.942  -2.299  16.570  0.00  0.00    +0.000 A 
ATOM     35  O   UNL     1     -11.869  -2.352  17.795  0.00  0.00    +0.000 OA
ATOM     36  C   UNL     1     -11.496  -3.429  15.708  0.00  0.00    +0.000 A 
ATOM     37  C   UNL     1     -11.667  -3.304  14.374  0.00  0.00    +0.000 A 
ATOM     38  C   UNL     1     -12.240  -2.105  13.767  0.00  0.00    +0.000 A 
ATOM     39  H   UNL     1     -12.753  -0.426  16.509  0.00  0.00    +0.000 HD
ATOM     40  H   UNL     1     -11.372  -4.107  13.697  0.00  0.00    +0.000 HD
BRANCH  38  41
ATOM     41  C   UNL     1     -12.408  -2.069  12.346  0.00  0.00    +0.000 C 
ATOM     42  N   UNL     1     -12.566  -2.061  11.201  0.00  0.00    +0.000 NA
ENDBRANCH  38  41
BRANCH  32  43
ATOM     43  S   UNL     1     -13.267   0.424  14.066  0.00  0.00    +0.000 S 
BRANCH  43  44
ATOM     44  C   UNL     1     -14.126   0.894  15.590  0.00  0.00    +0.000 C 
ATOM     45  H   UNL     1     -15.164   0.554  15.542  0.00  0.00    +0.000 HD
ATOM     46  H   UNL     1     -14.117   1.979  15.716  0.00  0.00    +0.000 HD
ATOM     47  H   UNL     1     -13.646   0.427  16.456  0.00  0.00    +0.000 HD
ENDBRANCH  43  44
ENDBRANCH  32  43
ENDBRANCH   1  36
TORSDOF 5
ENDMDL
MODEL 2
REMARK VINA RESULT:   -10.694      1.174      2.136
REMARK INTER + INTRA:         -14.303
REMARK INTER:                 -13.876
REMARK INTRA:                  -0.426
REMARK UNBOUND:                -0.795
REMARK  Name = 
REMARK  5 active torsions:
REMARK  status: ('A' for Active; 'I' for Inactive)
REMARK    1  A    between atoms: C_1  and  S_2
REMARK    2  A    between atoms: S_2  and  C_3
REMARK    3  A    between atoms: C_7  and  C_8
REMARK    4  A    between atoms: C_13  and  C_14
REMARK    5  A    between atoms: C_27  and  C_28
REMARK                            x       y       z     vdW  Elec       q    Type
REMARK                         _______ _______ _______ _____ _____    ______ ____
ROOT
ATOM      1  C   UNL     1     -10.844  -4.523  15.924  0.00  0.00    +0.000 C 
ATOM      2  O   UNL     1     -11.147  -5.626  15.478  0.00  0.00    +0.000 OA
ATOM      3  N   UNL     1     -10.026  -4.271  17.008  0.00  0.00    +0.000 N 
ATOM      4  C   UNL     1      -9.489  -5.273  17.770  0.00  0.00    +0.000 A 
ATOM      5  N   UNL     1      -9.515  -6.553  17.550  0.00  0.00    +0.000 NA
ATOM      6  C   UNL     1      -8.927  -7.263  18.597  0.00  0.00    +0.000 A 
ATOM      7  C   UNL     1      -8.468  -6.461  19.622  0.00  0.00    +0.000 A 
ATOM      8  S   UNL     1      -8.720  -4.795  19.214  0.00  0.00    +0.000 S 
ATOM      9  H   UNL     1      -9.848  -3.318  17.307  0.00  0.00    +0.000 HD
ATOM     10  H   UNL     1      -7.996  -6.733  20.554  0.00  0.00    +0.000 HD
ENDROOT
BRANCH   6  11
ATOM     11  C   UNL     1      -8.852  -8.720  18.484  0.00  0.00    +0.000 A 
ATOM     12  C   UNL     1      -8.566  -9.632  19.501  0.00  0.00    +0.000 A 
ATOM     13  C   UNL     1      -8.477 -11.014  19.204  0.00  0.00    +0.000 A 
ATOM     14  C   UNL     1      -8.647 -11.501  17.889  0.00  0.00    +0.000 A 
ATOM     15  C   UNL     1      -8.955 -10.590  16.891  0.00  0.00    +0.000 A 
ATOM     16  C   UNL     1      -9.071  -9.234  17.203  0.00  0.00    +0.000 A 
ATOM     17  C   UNL     1      -9.235 -10.956  15.471  0.00  0.00    +0.000 C 
ATOM     18  C   UNL     1      -8.787 -12.329  15.026  0.00  0.00    +0.000 C 
ATOM     19  C   UNL     1      -8.547 -13.383  16.100  0.00  0.00    +0.000 C 
ATOM     20  C   UNL     1      -8.536 -12.967  17.579  0.00  0.00    +0.000 C 
ATOM     21  H   UNL     1      -8.407  -9.307  20.525  0.00  0.00    +0.000 HD
ATOM     22  H   UNL     1      -8.268 -11.712  20.014  0.00  0.00    +0.000 HD
ATOM     23  H   UNL     1      -9.337  -8.553  16.394  0.00  0.00    +0.000 HD
ATOM     24  H   UNL     1     -10.311 -10.838  15.297  0.00  0.00    +0.000 HD
ATOM     25  H   UNL     1      -8.731 -10.222  14.828  0.00  0.00    +0.000 HD
ATOM     26  H   UNL     1      -7.864 -12.214  14.440  0.00  0.00    +0.000 HD
ATOM     27  H   UNL     1      -9.522 -12.705  14.303  0.00  0.00    +0.000 HD
ATOM     28  H   UNL     1      -7.588 -13.869  15.870  0.00  0.00    +0.000 HD
ATOM     29  H   UNL     1      -9.286 -14.183  15.968  0.00  0.00    +0.000 HD
ATOM     30  H   UNL     1      -7.606 -13.348  18.023  0.00  0.00    +0.000 HD
ATOM     31  H   UNL     1      -9.356 -13.492  18.085  0.00  0.00    +0.000 HD
ENDBRANCH   6  11
BRANCH   1  36
ATOM     32  C   UNL     1     -12.554  -0.947  14.178  0.00  0.00    +0.000 A 
ATOM     33  N   UNL     1     -12.201  -1.997  13.369  0.00  0.00    +0.000 N 
ATOM     34  C   UNL     1     -11.626  -3.160  13.809  0.00  0.00    +0.000 A 
ATOM     35  O   UNL     1     -11.295  -4.048  13.027  0.00  0.00    +0.000 OA
ATOM     36  C   UNL     1     -11.420  -3.291  15.278  0.00  0.00    +0.000 A 
ATOM     37  C   UNL     1     -11.762  -2.240  16.055  0.00  0.00    +0.000 A 
ATOM     38  C   UNL     1     -12.341  -1.016  15.505  0.00  0.00    +0.000 A 
ATOM     39  H   UNL     1     -12.339  -1.896  12.371  0.00  0.00    +0.000 HD
ATOM     40  H   UNL     1     -11.619  -2.276  17.135  0.00  0.00    +0.000 HD
BRANCH  38  41
ATOM     41  C   UNL     1     -12.651   0.058  16.400  0.00  0.00    +0.000 C 
ATOM     42  N   UNL     1     -12.932   0.921  17.115  0.00  0.00    +0.000 NA
ENDBRANCH  38  41
BRANCH  32  43
ATOM     43  S   UNL     1     -13.242   0.389  13.325  0.00  0.00    +0.000 S 
BRANCH  43  44
ATOM     44  C   UNL     1     -14.128  -0.509  12.025  0.00  0.00    +0.000 C 
ATOM     45  H   UNL     1     -13.425  -1.141  11.476  0.00  0.00    +0.000 HD
ATOM     46  H   UNL     1     -14.591   0.191  11.324  0.00  0.00    +0.000 HD
ATOM     47  H   UNL     1     -14.902  -1.146  12.463  0.00  0.00    +0.000 HD
ENDBRANCH  43  44
ENDBRANCH  32  43
ENDBRANCH   1  36
TORSDOF 5
ENDMDL
MODEL 3
REMARK VINA RESULT:   -10.687      1.163      1.922
REMARK INTER + INTRA:         -14.293
REMARK INTER:                 -13.562
REMARK INTRA:                  -0.731
REMARK UNBOUND:                -0.795
REMARK  Name = 
REMARK  5 active torsions:
REMARK  status: ('A' for Active; 'I' for Inactive)
REMARK    1  A    between atoms: C_1  and  S_2
REMARK    2  A    between atoms: S_2  and  C_3
REMARK    3  A    between atoms: C_7  and  C_8
REMARK    4  A    between atoms: C_13  and  C_14
REMARK    5  A    between atoms: C_27  and  C_28
REMARK                            x       y       z     vdW  Elec       q    Type
REMARK                         _______ _______ _______ _____ _____    ______ ____
ROOT
ATOM      1  C   UNL     1     -10.824  -4.635  16.072  0.00  0.00    +0.000 C 
ATOM      2  O   UNL     1     -11.043  -5.426  15.158  0.00  0.00    +0.000 OA
ATOM      3  N   UNL     1     -10.142  -4.900  17.243  0.00  0.00    +0.000 N 
ATOM      4  C   UNL     1      -9.667  -6.147  17.549  0.00  0.00    +0.000 A 
ATOM      5  N   UNL     1      -9.631  -7.202  16.792  0.00  0.00    +0.000 NA
ATOM      6  C   UNL     1      -9.146  -8.311  17.485  0.00  0.00    +0.000 A 
ATOM      7  C   UNL     1      -8.829  -8.047  18.802  0.00  0.00    +0.000 A 
ATOM      8  S   UNL     1      -9.080  -6.364  19.135  0.00  0.00    +0.000 S 
ATOM      9  H   UNL     1     -10.027  -4.177  17.946  0.00  0.00    +0.000 HD
ATOM     10  H   UNL     1      -8.459  -8.709  19.571  0.00  0.00    +0.000 HD
ENDROOT
BRANCH   6  11
ATOM     11  C   UNL     1      -9.016  -9.574  16.758  0.00  0.00    +0.000 A 
ATOM     12  C   UNL     1      -9.081  -9.764  15.377  0.00  0.00    +0.000 A 
ATOM     13  C   UNL     1      -8.991 -11.071  14.840  0.00  0.00    +0.000 A 
ATOM     14  C   UNL     1      -8.861 -12.206  15.671  0.00  0.00    +0.000 A 
ATOM     15  C   UNL     1      -8.773 -12.005  17.040  0.00  0.00    +0.000 A 
ATOM     16  C   UNL     1      -8.831 -10.708  17.555  0.00  0.00    +0.000 A 
ATOM     17  C   UNL     1      -8.561 -13.092  18.040  0.00  0.00    +0.000 C 
ATOM     18  C   UNL     1      -8.839 -14.503  17.575  0.00  0.00    +0.000 C 
ATOM     19  C   UNL     1      -8.832 -14.773  16.076  0.00  0.00    +0.000 C 
ATOM     20  C   UNL     1      -8.782 -13.591  15.095  0.00  0.00    +0.000 C 
ATOM     21  H   UNL     1      -9.201  -8.927  14.695  0.00  0.00    +0.000 HD
ATOM     22  H   UNL     1      -9.029 -11.198  13.758  0.00  0.00    +0.000 HD
ATOM     23  H   UNL     1      -8.735 -10.591  18.634  0.00  0.00    +0.000 HD
ATOM     24  H   UNL     1      -7.531 -13.015  18.411  0.00  0.00    +0.000 HD
ATOM     25  H   UNL     1      -9.217 -12.894  18.899  0.00  0.00    +0.000 HD
ATOM     26  H   UNL     1      -9.813 -14.810  17.980  0.00  0.00    +0.000 HD
ATOM     27  H   UNL     1      -8.118 -15.167  18.069  0.00  0.00    +0.000 HD
ATOM     28  H   UNL     1      -9.726 -15.372  15.850  0.00  0.00    +0.000 HD
ATOM     29  H   UNL     1      -7.998 -15.449  15.851  0.00  0.00    +0.000 HD
ATOM     30  H   UNL     1      -9.607 -13.720  14.380  0.00  0.00    +0.000 HD
ATOM     31  H   UNL     1      -7.856 -13.673  14.513  0.00  0.00    +0.000 HD
ENDBRANCH   6  11
BRANCH   1  36
ATOM     32  C   UNL     1     -12.302  -0.585  15.657  0.00  0.00    +0.000 A 
ATOM     33  N   UNL     1     -12.247  -1.165  16.898  0.00  0.00    +0.000 N 
ATOM     34  C   UNL     1     -11.827  -2.446  17.141  0.00  0.00    +0.000 A 
ATOM     35  O   UNL     1     -11.841  -2.921  18.274  0.00  0.00    +0.000 OA
ATOM     36  C   UNL     1     -11.359  -3.232  15.966  0.00  0.00    +0.000 A 
ATOM     37  C   UNL     1     -11.434  -2.646  14.751  0.00  0.00    +0.000 A 
ATOM     38  C   UNL     1     -11.927  -1.283  14.568  0.00  0.00    +0.000 A 
ATOM     39  H   UNL     1     -12.574  -0.626  17.690  0.00  0.00    +0.000 HD
ATOM     40  H   UNL     1     -11.118  -3.181  13.855  0.00  0.00    +0.000 HD
BRANCH  38  41
ATOM     41  C   UNL     1     -11.995  -0.751  13.241  0.00  0.00    +0.000 C 
ATOM     42  N   UNL     1     -12.029  -0.299  12.178  0.00  0.00    +0.000 NA
ENDBRANCH  38  41
BRANCH  32  43
ATOM     43  S   UNL     1     -12.893   1.039  15.671  0.00  0.00    +0.000 S 
BRANCH  43  44
ATOM     44  C   UNL     1     -12.703   1.411  17.433  0.00  0.00    +0.000 C 
ATOM     45  H   UNL     1     -12.595   0.478  17.993  0.00  0.00    +0.000 HD
ATOM     46  H   UNL     1     -13.579   1.946  17.808  0.00  0.00    +0.000 HD
ATOM     47  H   UNL     1     -11.810   2.022  17.599  0.00  0.00    +0.000 HD
ENDBRANCH  43  44
ENDBRANCH  32  43
ENDBRANCH   1  36
TORSDOF 5
ENDMDL
MODEL 4
REMARK VINA RESULT:   -10.425      1.945      2.930
REMARK INTER + INTRA:         -13.962
REMARK INTER:                 -13.438
REMARK INTRA:                  -0.524
REMARK UNBOUND:                -0.795
REMARK  Name = 
REMARK  5 active torsions:
REMARK  status: ('A' for Active; 'I' for Inactive)
REMARK    1  A    between atoms: C_1  and  S_2
REMARK    2  A    between atoms: S_2  and  C_3
REMARK    3  A    between atoms: C_7  and  C_8
REMARK    4  A    between atoms: C_13  and  C_14
REMARK    5  A    between atoms: C_27  and  C_28
REMARK                            x       y       z     vdW  Elec       q    Type
REMARK                         _______ _______ _______ _____ _____    ______ ____
ROOT
ATOM      1  C   UNL     1     -10.101  -4.402  14.886  0.00  0.00    +0.000 C 
ATOM      2  O   UNL     1      -9.976  -5.222  13.981  0.00  0.00    +0.000 OA
ATOM      3  N   UNL     1     -10.021  -4.656  16.242  0.00  0.00    +0.000 N 
ATOM      4  C   UNL     1      -9.843  -5.917  16.742  0.00  0.00    +0.000 A 
ATOM      5  N   UNL     1      -9.582  -7.011  16.093  0.00  0.00    +0.000 NA
ATOM      6  C   UNL     1      -9.550  -8.115  16.945  0.00  0.00    +0.000 A 
ATOM      7  C   UNL     1      -9.811  -7.806  18.264  0.00  0.00    +0.000 A 
ATOM      8  S   UNL     1     -10.023  -6.093  18.429  0.00  0.00    +0.000 S 
ATOM      9  H   UNL     1     -10.153  -3.907  16.913  0.00  0.00    +0.000 HD
ATOM     10  H   UNL     1      -9.873  -8.452  19.127  0.00  0.00    +0.000 HD
ENDROOT
BRANCH   6  11
ATOM     11  C   UNL     1      -9.238  -9.422  16.366  0.00  0.00    +0.000 A 
ATOM     12  C   UNL     1      -9.090  -9.733  15.013  0.00  0.00    +0.000 A 
ATOM     13  C   UNL     1      -8.841 -11.070  14.620  0.00  0.00    +0.000 A 
ATOM     14  C   UNL     1      -8.761 -12.117  15.565  0.00  0.00    +0.000 A 
ATOM     15  C   UNL     1      -8.885 -11.795  16.908  0.00  0.00    +0.000 A 
ATOM     16  C   UNL     1      -9.099 -10.467  17.284  0.00  0.00    +0.000 A 
ATOM     17  C   UNL     1      -8.752 -12.774  18.026  0.00  0.00    +0.000 C 
ATOM     18  C   UNL     1      -8.871 -14.236  17.663  0.00  0.00    +0.000 C 
ATOM     19  C   UNL     1      -8.630 -14.631  16.211  0.00  0.00    +0.000 C 
ATOM     20  C   UNL     1      -8.513 -13.537  15.140  0.00  0.00    +0.000 C 
ATOM     21  H   UNL     1      -9.162  -8.968  14.245  0.00  0.00    +0.000 HD
ATOM     22  H   UNL     1      -8.714 -11.291  13.560  0.00  0.00    +0.000 HD
ATOM     23  H   UNL     1      -9.168 -10.252  18.351  0.00  0.00    +0.000 HD
ATOM     24  H   UNL     1      -7.794 -12.588  18.527  0.00  0.00    +0.000 HD
ATOM     25  H   UNL     1      -9.537 -12.554  18.763  0.00  0.00    +0.000 HD
ATOM     26  H   UNL     1      -9.872 -14.581  17.956  0.00  0.00    +0.000 HD
ATOM     27  H   UNL     1      -8.189 -14.800  18.313  0.00  0.00    +0.000 HD
ATOM     28  H   UNL     1      -9.442 -15.313  15.922  0.00  0.00    +0.000 HD
ATOM     29  H   UNL     1      -7.731 -15.259  16.170  0.00  0.00    +0.000 HD
ATOM     30  H   UNL     1      -9.216 -13.787  14.333  0.00  0.00    +0.000 HD
ATOM     31  H   UNL     1      -7.509 -13.597  14.701  0.00  0.00    +0.000 HD
ENDBRANCH   6  11
BRANCH   1  36
ATOM     32  C   UNL     1     -11.092  -0.300  13.911  0.00  0.00    +0.000 A 
ATOM     33  N   UNL     1      -9.963  -0.871  13.383  0.00  0.00    +0.000 N 
ATOM     34  C   UNL     1      -9.538  -2.147  13.647  0.00  0.00    +0.000 A 
ATOM     35  O   UNL     1      -8.493  -2.585  13.173  0.00  0.00    +0.000 OA
ATOM     36  C   UNL     1     -10.403  -2.970  14.537  0.00  0.00    +0.000 A 
ATOM     37  C   UNL     1     -11.504  -2.384  15.057  0.00  0.00    +0.000 A 
ATOM     38  C   UNL     1     -11.872  -1.003  14.754  0.00  0.00    +0.000 A 
ATOM     39  H   UNL     1      -9.377  -0.302  12.784  0.00  0.00    +0.000 HD
ATOM     40  H   UNL     1     -12.164  -2.935  15.727  0.00  0.00    +0.000 HD
BRANCH  38  41
ATOM     41  C   UNL     1     -13.043  -0.455  15.369  0.00  0.00    +0.000 C 
ATOM     42  N   UNL     1     -14.006  -0.027  15.844  0.00  0.00    +0.000 NA
ENDBRANCH  38  41
BRANCH  32  43
ATOM     43  S   UNL     1     -11.352   1.331  13.403  0.00  0.00    +0.000 S 
BRANCH  43  44
ATOM     44  C   UNL     1      -9.706   1.706  12.747  0.00  0.00    +0.000 C 
ATOM     45  H   UNL     1      -9.045   1.998  13.567  0.00  0.00    +0.000 HD
ATOM     46  H   UNL     1      -9.759   2.529  12.030  0.00  0.00    +0.000 HD
ATOM     47  H   UNL     1      -9.283   0.825  12.254  0.00  0.00    +0.000 HD
ENDBRANCH  43  44
ENDBRANCH  32  43
ENDBRANCH   1  36
TORSDOF 5
ENDMDL
MODEL 5
REMARK VINA RESULT:   -10.330      1.476      2.861
REMARK INTER + INTRA:         -13.842
REMARK INTER:                 -13.638
REMARK INTRA:                  -0.204
REMARK UNBOUND:                -0.795
REMARK  Name = 
REMARK  5 active torsions:
REMARK  status: ('A' for Active; 'I' for Inactive)
REMARK    1  A    between atoms: C_1  and  S_2
REMARK    2  A    between atoms: S_2  and  C_3
REMARK    3  A    between atoms: C_7  and  C_8
REMARK    4  A    between atoms: C_13  and  C_14
REMARK    5  A    between atoms: C_27  and  C_28
REMARK                            x       y       z     vdW  Elec       q    Type
REMARK                         _______ _______ _______ _____ _____    ______ ____
ROOT
ATOM      1  C   UNL     1     -10.742  -4.442  15.899  0.00  0.00    +0.000 C 
ATOM      2  O   UNL     1     -10.945  -5.238  14.987  0.00  0.00    +0.000 OA
ATOM      3  N   UNL     1     -10.098  -4.706  17.092  0.00  0.00    +0.000 N 
ATOM      4  C   UNL     1      -9.648  -5.956  17.421  0.00  0.00    +0.000 A 
ATOM      5  N   UNL     1      -9.605  -7.018  16.675  0.00  0.00    +0.000 NA
ATOM      6  C   UNL     1      -9.154  -8.127  17.391  0.00  0.00    +0.000 A 
ATOM      7  C   UNL     1      -8.872  -7.856  18.714  0.00  0.00    +0.000 A 
ATOM      8  S   UNL     1      -9.110  -6.167  19.026  0.00  0.00    +0.000 S 
ATOM      9  H   UNL     1      -9.993  -3.979  17.791  0.00  0.00    +0.000 HD
ATOM     10  H   UNL     1      -8.533  -8.516  19.499  0.00  0.00    +0.000 HD
ENDROOT
BRANCH   6  11
ATOM     11  C   UNL     1      -9.021  -9.399  16.679  0.00  0.00    +0.000 A 
ATOM     12  C   UNL     1      -9.086  -9.605  15.300  0.00  0.00    +0.000 A 
ATOM     13  C   UNL     1      -8.992 -10.918  14.778  0.00  0.00    +0.000 A 
ATOM     14  C   UNL     1      -8.858 -12.042  15.622  0.00  0.00    +0.000 A 
ATOM     15  C   UNL     1      -8.771 -11.825  16.989  0.00  0.00    +0.000 A 
ATOM     16  C   UNL     1      -8.833 -10.523  17.488  0.00  0.00    +0.000 A 
ATOM     17  C   UNL     1      -8.555 -12.900  18.001  0.00  0.00    +0.000 C 
ATOM     18  C   UNL     1      -8.829 -14.317  17.553  0.00  0.00    +0.000 C 
ATOM     19  C   UNL     1      -8.822 -14.604  16.057  0.00  0.00    +0.000 C 
ATOM     20  C   UNL     1      -8.775 -13.434  15.063  0.00  0.00    +0.000 C 
ATOM     21  H   UNL     1      -9.208  -8.776  14.608  0.00  0.00    +0.000 HD
ATOM     22  H   UNL     1      -9.029 -11.057  13.698  0.00  0.00    +0.000 HD
ATOM     23  H   UNL     1      -8.737 -10.393  18.566  0.00  0.00    +0.000 HD
ATOM     24  H   UNL     1      -7.526 -12.815  18.371  0.00  0.00    +0.000 HD
ATOM     25  H   UNL     1      -9.212 -12.694  18.857  0.00  0.00    +0.000 HD
ATOM     26  H   UNL     1      -9.802 -14.623  17.961  0.00  0.00    +0.000 HD
ATOM     27  H   UNL     1      -8.106 -14.974  18.054  0.00  0.00    +0.000 HD
ATOM     28  H   UNL     1      -9.714 -15.209  15.838  0.00  0.00    +0.000 HD
ATOM     29  H   UNL     1      -7.985 -15.280  15.840  0.00  0.00    +0.000 HD
ATOM     30  H   UNL     1      -9.600 -13.573  14.349  0.00  0.00    +0.000 HD
ATOM     31  H   UNL     1      -7.849 -13.519  14.480  0.00  0.00    +0.000 HD
ENDBRANCH   6  11
BRANCH   1  36
ATOM     32  C   UNL     1     -12.229  -0.383  15.642  0.00  0.00    +0.000 A 
ATOM     33  N   UNL     1     -12.301  -1.204  14.546  0.00  0.00    +0.000 N 
ATOM     34  C   UNL     1     -11.836  -2.492  14.506  0.00  0.00    +0.000 A 
ATOM     35  O   UNL     1     -11.894  -3.163  13.479  0.00  0.00    +0.000 OA
ATOM     36  C   UNL     1     -11.255  -3.033  15.766  0.00  0.00    +0.000 A 
ATOM     37  C   UNL     1     -11.181  -2.203  16.829  0.00  0.00    +0.000 A 
ATOM     38  C   UNL     1     -11.670  -0.827  16.783  0.00  0.00    +0.000 A 
ATOM     39  H   UNL     1     -12.692  -0.825  13.692  0.00  0.00    +0.000 HD
ATOM     40  H   UNL     1     -10.751  -2.543  17.772  0.00  0.00    +0.000 HD
BRANCH  38  41
ATOM     41  C   UNL     1     -11.529  -0.010  17.950  0.00  0.00    +0.000 C 
ATOM     42  N   UNL     1     -11.431   0.628  18.909  0.00  0.00    +0.000 NA
ENDBRANCH  38  41
BRANCH  32  43
ATOM     43  S   UNL     1     -12.887   1.193  15.377  0.00  0.00    +0.000 S 
BRANCH  43  44
ATOM     44  C   UNL     1     -14.549   0.942  16.050  0.00  0.00    +0.000 C 
ATOM     45  H   UNL     1     -15.258   1.583  15.518  0.00  0.00    +0.000 HD
ATOM     46  H   UNL     1     -14.575   1.197  17.112  0.00  0.00    +0.000 HD
ATOM     47  H   UNL     1     -14.858  -0.100  15.921  0.00  0.00    +0.000 HD
ENDBRANCH  43  44
ENDBRANCH  32  43
ENDBRANCH   1  36
TORSDOF 5
ENDMDL
MODEL 6
REMARK VINA RESULT:   -10.313      2.327      3.724
REMARK INTER + INTRA:         -13.821
REMARK INTER:                 -13.519
REMARK INTRA:                  -0.302
REMARK UNBOUND:                -0.795
REMARK  Name = 
REMARK  5 active torsions:
REMARK  status: ('A' for Active; 'I' for Inactive)
REMARK    1  A    between atoms: C_1  and  S_2
REMARK    2  A    between atoms: S_2  and  C_3
REMARK    3  A    between atoms: C_7  and  C_8
REMARK    4  A    between atoms: C_13  and  C_14
REMARK    5  A    between atoms: C_27  and  C_28
REMARK                            x       y       z     vdW  Elec       q    Type
REMARK                         _______ _______ _______ _____ _____    ______ ____
ROOT
ATOM      1  C   UNL     1     -10.154  -4.846  17.646  0.00  0.00    +0.000 C 
ATOM      2  O   UNL     1     -10.372  -5.383  16.563  0.00  0.00    +0.000 OA
ATOM      3  N   UNL     1      -9.597  -5.442  18.761  0.00  0.00    +0.000 N 
ATOM      4  C   UNL     1      -9.267  -6.769  18.795  0.00  0.00    +0.000 A 
ATOM      5  N   UNL     1      -9.270  -7.625  17.818  0.00  0.00    +0.000 NA
ATOM      6  C   UNL     1      -8.948  -8.908  18.262  0.00  0.00    +0.000 A 
ATOM      7  C   UNL     1      -8.715  -8.983  19.619  0.00  0.00    +0.000 A 
ATOM      8  S   UNL     1      -8.833  -7.401  20.319  0.00  0.00    +0.000 S 
ATOM      9  H   UNL     1      -9.471  -4.912  19.617  0.00  0.00    +0.000 HD
ATOM     10  H   UNL     1      -8.471  -9.837  20.233  0.00  0.00    +0.000 HD
ENDROOT
BRANCH   6  11
ATOM     11  C   UNL     1      -8.879  -9.982  17.270  0.00  0.00    +0.000 A 
ATOM     12  C   UNL     1      -8.987  -9.859  15.884  0.00  0.00    +0.000 A 
ATOM     13  C   UNL     1      -8.954 -11.016  15.069  0.00  0.00    +0.000 A 
ATOM     14  C   UNL     1      -8.839 -12.310  15.624  0.00  0.00    +0.000 A 
ATOM     15  C   UNL     1      -8.708 -12.420  17.000  0.00  0.00    +0.000 A 
ATOM     16  C   UNL     1      -8.710 -11.268  17.790  0.00  0.00    +0.000 A 
ATOM     17  C   UNL     1      -8.505 -13.706  17.728  0.00  0.00    +0.000 C 
ATOM     18  C   UNL     1      -8.842 -14.972  16.973  0.00  0.00    +0.000 C 
ATOM     19  C   UNL     1      -8.884 -14.903  15.452  0.00  0.00    +0.000 C 
ATOM     20  C   UNL     1      -8.822 -13.535  14.755  0.00  0.00    +0.000 C 
ATOM     21  H   UNL     1      -9.098  -8.889  15.407  0.00  0.00    +0.000 HD
ATOM     22  H   UNL     1      -9.025 -10.900  13.988  0.00  0.00    +0.000 HD
ATOM     23  H   UNL     1      -8.582 -11.395  18.865  0.00  0.00    +0.000 HD
ATOM     24  H   UNL     1      -7.464 -13.740  18.072  0.00  0.00    +0.000 HD
ATOM     25  H   UNL     1      -9.132 -13.686  18.631  0.00  0.00    +0.000 HD
ATOM     26  H   UNL     1      -9.814 -15.335  17.332  0.00  0.00    +0.000 HD
ATOM     27  H   UNL     1      -8.130 -15.748  17.284  0.00  0.00    +0.000 HD
ATOM     28  H   UNL     1      -9.803 -15.413  15.129  0.00  0.00    +0.000 HD
ATOM     29  H   UNL     1      -8.079 -15.534  15.056  0.00  0.00    +0.000 HD
ATOM     30  H   UNL     1      -9.668 -13.480  14.057  0.00  0.00    +0.000 HD
ATOM     31  H   UNL     1      -7.914 -13.510  14.138  0.00  0.00    +0.000 HD
ENDBRANCH   6  11
BRANCH   1  36
ATOM     32  C   UNL     1     -11.334  -0.732  18.307  0.00  0.00    +0.000 A 
ATOM     33  N   UNL     1     -11.032  -1.157  17.039  0.00  0.00    +0.000 N 
ATOM     34  C   UNL     1     -10.620  -2.424  16.719  0.00  0.00    +0.000 A 
ATOM     35  O   UNL     1     -10.325  -2.731  15.567  0.00  0.00    +0.000 OA
ATOM     36  C   UNL     1     -10.545  -3.405  17.838  0.00  0.00    +0.000 A 
ATOM     37  C   UNL     1     -10.833  -2.962  19.081  0.00  0.00    +0.000 A 
ATOM     38  C   UNL     1     -11.234  -1.582  19.346  0.00  0.00    +0.000 A 
ATOM     39  H   UNL     1     -11.080  -0.482  16.286  0.00  0.00    +0.000 HD
ATOM     40  H   UNL     1     -10.779  -3.634  19.938  0.00  0.00    +0.000 HD
BRANCH  38  41
ATOM     41  C   UNL     1     -11.497  -1.192  20.698  0.00  0.00    +0.000 C 
ATOM     42  N   UNL     1     -11.714  -0.908  21.797  0.00  0.00    +0.000 NA
ENDBRANCH  38  41
BRANCH  32  43
ATOM     43  S   UNL     1     -11.807   0.928  18.391  0.00  0.00    +0.000 S 
BRANCH  43  44
ATOM     44  C   UNL     1     -11.748   1.347  16.630  0.00  0.00    +0.000 C 
ATOM     45  H   UNL     1     -10.791   1.823  16.401  0.00  0.00    +0.000 HD
ATOM     46  H   UNL     1     -12.554   2.039  16.374  0.00  0.00    +0.000 HD
ATOM     47  H   UNL     1     -11.842   0.442  16.021  0.00  0.00    +0.000 HD
ENDBRANCH  43  44
ENDBRANCH  32  43
ENDBRANCH   1  36
TORSDOF 5
ENDMDL
MODEL 7
REMARK VINA RESULT:   -10.311      3.810      6.263
REMARK INTER + INTRA:         -13.818
REMARK INTER:                 -13.056
REMARK INTRA:                  -0.762
REMARK UNBOUND:                -0.795
REMARK  Name = 
REMARK  5 active torsions:
REMARK  status: ('A' for Active; 'I' for Inactive)
REMARK    1  A    between atoms: C_1  and  S_2
REMARK    2  A    between atoms: S_2  and  C_3
REMARK    3  A    between atoms: C_7  and  C_8
REMARK    4  A    between atoms: C_13  and  C_14
REMARK    5  A    between atoms: C_27  and  C_28
REMARK                            x       y       z     vdW  Elec       q    Type
REMARK                         _______ _______ _______ _____ _____    ______ ____
ROOT
ATOM      1  C   UNL     1      -8.686  -5.075  19.658  0.00  0.00    +0.000 C 
ATOM      2  O   UNL     1      -8.009  -6.090  19.786  0.00  0.00    +0.000 OA
ATOM      3  N   UNL     1      -9.595  -4.814  18.650  0.00  0.00    +0.000 N 
ATOM      4  C   UNL     1      -9.801  -5.676  17.609  0.00  0.00    +0.000 A 
ATOM      5  N   UNL     1      -9.337  -6.880  17.456  0.00  0.00    +0.000 NA
ATOM      6  C   UNL     1      -9.704  -7.416  16.222  0.00  0.00    +0.000 A 
ATOM      7  C   UNL     1     -10.457  -6.558  15.446  0.00  0.00    +0.000 A 
ATOM      8  S   UNL     1     -10.759  -5.093  16.323  0.00  0.00    +0.000 S 
ATOM      9  H   UNL     1     -10.097  -3.932  18.627  0.00  0.00    +0.000 HD
ATOM     10  H   UNL     1     -10.856  -6.694  14.452  0.00  0.00    +0.000 HD
ENDROOT
BRANCH   6  11
ATOM     11  C   UNL     1      -9.281  -8.782  15.911  0.00  0.00    +0.000 A 
ATOM     12  C   UNL     1      -8.999  -9.313  14.652  0.00  0.00    +0.000 A 
ATOM     13  C   UNL     1      -8.654 -10.680  14.524  0.00  0.00    +0.000 A 
ATOM     14  C   UNL     1      -8.609 -11.540  15.643  0.00  0.00    +0.000 A 
ATOM     15  C   UNL     1      -8.866 -10.998  16.893  0.00  0.00    +0.000 A 
ATOM     16  C   UNL     1      -9.175  -9.641  17.008  0.00  0.00    +0.000 A 
ATOM     17  C   UNL     1      -8.787 -11.758  18.175  0.00  0.00    +0.000 C 
ATOM     18  C   UNL     1      -8.804 -13.265  18.070  0.00  0.00    +0.000 C 
ATOM     19  C   UNL     1      -8.417 -13.890  16.735  0.00  0.00    +0.000 C 
ATOM     20  C   UNL     1      -8.257 -12.993  15.498  0.00  0.00    +0.000 C 
ATOM     21  H   UNL     1      -9.039  -8.699  13.756  0.00  0.00    +0.000 HD
ATOM     22  H   UNL     1      -8.423 -11.073  13.534  0.00  0.00    +0.000 HD
ATOM     23  H   UNL     1      -9.348  -9.248  18.011  0.00  0.00    +0.000 HD
ATOM     24  H   UNL     1      -7.887 -11.429  18.708  0.00  0.00    +0.000 HD
ATOM     25  H   UNL     1      -9.644 -11.462  18.796  0.00  0.00    +0.000 HD
ATOM     26  H   UNL     1      -9.810 -13.615  18.340  0.00  0.00    +0.000 HD
ATOM     27  H   UNL     1      -8.156 -13.665  18.861  0.00  0.00    +0.000 HD
ATOM     28  H   UNL     1      -9.168 -14.661  16.509  0.00  0.00    +0.000 HD
ATOM     29  H   UNL     1      -7.490 -14.459  16.877  0.00  0.00    +0.000 HD
ATOM     30  H   UNL     1      -8.873 -13.423  14.696  0.00  0.00    +0.000 HD
ATOM     31  H   UNL     1      -7.216 -13.067  15.158  0.00  0.00    +0.000 HD
ENDBRANCH   6  11
BRANCH   1  36
ATOM     32  C   UNL     1      -8.248  -1.947  22.622  0.00  0.00    +0.000 A 
ATOM     33  N   UNL     1      -8.510  -1.616  21.317  0.00  0.00    +0.000 N 
ATOM     34  C   UNL     1      -8.637  -2.518  20.294  0.00  0.00    +0.000 A 
ATOM     35  O   UNL     1      -8.832  -2.154  19.138  0.00  0.00    +0.000 OA
ATOM     36  C   UNL     1      -8.525  -3.959  20.656  0.00  0.00    +0.000 A 
ATOM     37  C   UNL     1      -8.254  -4.262  21.944  0.00  0.00    +0.000 A 
ATOM     38  C   UNL     1      -8.097  -3.237  22.973  0.00  0.00    +0.000 A 
ATOM     39  H   UNL     1      -8.578  -0.633  21.079  0.00  0.00    +0.000 HD
ATOM     40  H   UNL     1      -8.146  -5.300  22.260  0.00  0.00    +0.000 HD
BRANCH  38  41
ATOM     41  C   UNL     1      -7.786  -3.649  24.309  0.00  0.00    +0.000 C 
ATOM     42  N   UNL     1      -7.538  -4.011  25.378  0.00  0.00    +0.000 NA
ENDBRANCH  38  41
BRANCH  32  43
ATOM     43  S   UNL     1      -8.127  -0.583  23.676  0.00  0.00    +0.000 S 
BRANCH  43  44
ATOM     44  C   UNL     1      -9.694   0.238  23.287  0.00  0.00    +0.000 C 
ATOM     45  H   UNL     1     -10.160   0.590  24.211  0.00  0.00    +0.000 HD
ATOM     46  H   UNL     1     -10.377  -0.457  22.792  0.00  0.00    +0.000 HD
ATOM     47  H   UNL     1      -9.520   1.099  22.634  0.00  0.00    +0.000 HD
ENDBRANCH  43  44
ENDBRANCH  32  43
ENDBRANCH   1  36
TORSDOF 5
ENDMDL
MODEL 8
REMARK VINA RESULT:   -10.115      3.467      4.799
REMARK INTER + INTRA:         -13.571
REMARK INTER:                 -12.853
REMARK INTRA:                  -0.718
REMARK UNBOUND:                -0.795
REMARK  Name = 
REMARK  5 active torsions:
REMARK  status: ('A' for Active; 'I' for Inactive)
REMARK    1  A    between atoms: C_1  and  S_2
REMARK    2  A    between atoms: S_2  and  C_3
REMARK    3  A    between atoms: C_7  and  C_8
REMARK    4  A    between atoms: C_13  and  C_14
REMARK    5  A    between atoms: C_27  and  C_28
REMARK                            x       y       z     vdW  Elec       q    Type
REMARK                         _______ _______ _______ _____ _____    ______ ____
ROOT
ATOM      1  C   UNL     1      -9.511  -4.910  18.747  0.00  0.00    +0.000 C 
ATOM      2  O   UNL     1      -9.374  -5.812  19.568  0.00  0.00    +0.000 OA
ATOM      3  N   UNL     1      -9.566  -5.048  17.374  0.00  0.00    +0.000 N 
ATOM      4  C   UNL     1      -9.408  -6.256  16.752  0.00  0.00    +0.000 A 
ATOM      5  N   UNL     1      -9.335  -7.436  17.292  0.00  0.00    +0.000 NA
ATOM      6  C   UNL     1      -9.093  -8.421  16.334  0.00  0.00    +0.000 A 
ATOM      7  C   UNL     1      -8.974  -7.930  15.051  0.00  0.00    +0.000 A 
ATOM      8  S   UNL     1      -9.246  -6.218  15.055  0.00  0.00    +0.000 S 
ATOM      9  H   UNL     1      -9.668  -4.232  16.779  0.00  0.00    +0.000 HD
ATOM     10  H   UNL     1      -8.767  -8.450  14.127  0.00  0.00    +0.000 HD
ENDROOT
BRANCH   6  11
ATOM     11  C   UNL     1      -9.014  -9.812  16.783  0.00  0.00    +0.000 A 
ATOM     12  C   UNL     1      -8.858 -10.269  18.093  0.00  0.00    +0.000 A 
ATOM     13  C   UNL     1      -8.743 -11.657  18.346  0.00  0.00    +0.000 A 
ATOM     14  C   UNL     1      -8.756 -12.604  17.298  0.00  0.00    +0.000 A 
ATOM     15  C   UNL     1      -8.936 -12.142  16.003  0.00  0.00    +0.000 A 
ATOM     16  C   UNL     1      -9.080 -10.773  15.771  0.00  0.00    +0.000 A 
ATOM     17  C   UNL     1      -9.045 -13.021  14.802  0.00  0.00    +0.000 C 
ATOM     18  C   UNL     1      -8.555 -14.442  14.956  0.00  0.00    +0.000 C 
ATOM     19  C   UNL     1      -8.453 -15.011  16.366  0.00  0.00    +0.000 C 
ATOM     20  C   UNL     1      -8.618 -14.075  17.573  0.00  0.00    +0.000 C 
ATOM     21  H   UNL     1      -8.821  -9.581  18.933  0.00  0.00    +0.000 HD
ATOM     22  H   UNL     1      -8.637 -11.996  19.376  0.00  0.00    +0.000 HD
ATOM     23  H   UNL     1      -9.242 -10.453  14.741  0.00  0.00    +0.000 HD
ATOM     24  H   UNL     1     -10.092 -13.018  14.475  0.00  0.00    +0.000 HD
ATOM     25  H   UNL     1      -8.463 -12.559  13.992  0.00  0.00    +0.000 HD
ATOM     26  H   UNL     1      -7.569 -14.517  14.479  0.00  0.00    +0.000 HD
ATOM     27  H   UNL     1      -9.201 -15.088  14.347  0.00  0.00    +0.000 HD
ATOM     28  H   UNL     1      -7.476 -15.509  16.445  0.00  0.00    +0.000 HD
ATOM     29  H   UNL     1      -9.176 -15.832  16.459  0.00  0.00    +0.000 HD
ATOM     30  H   UNL     1      -7.750 -14.227  18.230  0.00  0.00    +0.000 HD
ATOM     31  H   UNL     1      -9.496 -14.406  18.142  0.00  0.00    +0.000 HD
ENDBRANCH   6  11
BRANCH   1  36
ATOM     32  C   UNL     1      -9.735  -0.859  20.264  0.00  0.00    +0.000 A 
ATOM     33  N   UNL     1     -10.445  -1.206  19.144  0.00  0.00    +0.000 N 
ATOM     34  C   UNL     1     -10.425  -2.446  18.561  0.00  0.00    +0.000 A 
ATOM     35  O   UNL     1     -11.054  -2.681  17.533  0.00  0.00    +0.000 OA
ATOM     36  C   UNL     1      -9.602  -3.488  19.235  0.00  0.00    +0.000 A 
ATOM     37  C   UNL     1      -8.899  -3.122  20.329  0.00  0.00    +0.000 A 
ATOM     38  C   UNL     1      -8.946  -1.766  20.871  0.00  0.00    +0.000 A 
ATOM     39  H   UNL     1     -10.997  -0.489  18.689  0.00  0.00    +0.000 HD
ATOM     40  H   UNL     1      -8.268  -3.841  20.852  0.00  0.00    +0.000 HD
BRANCH  38  41
ATOM     41  C   UNL     1      -8.150  -1.459  22.020  0.00  0.00    +0.000 C 
ATOM     42  N   UNL     1      -7.480  -1.221  22.932  0.00  0.00    +0.000 NA
ENDBRANCH  38  41
BRANCH  32  43
ATOM     43  S   UNL     1      -9.953   0.786  20.747  0.00  0.00    +0.000 S 
BRANCH  43  44
ATOM     44  C   UNL     1     -11.214   0.557  22.027  0.00  0.00    +0.000 C 
ATOM     45  H   UNL     1     -11.132  -0.451  22.443  0.00  0.00    +0.000 HD
ATOM     46  H   UNL     1     -12.215   0.682  21.605  0.00  0.00    +0.000 HD
ATOM     47  H   UNL     1     -11.071   1.281  22.836  0.00  0.00    +0.000 HD
ENDBRANCH  43  44
ENDBRANCH  32  43
ENDBRANCH   1  36
TORSDOF 5
ENDMDL
