MODEL 1
REMARK VINA RESULT:    -9.322      0.000      0.000
REMARK INTER + INTRA:         -12.671
REMARK INTER:                 -12.047
REMARK INTRA:                  -0.623
REMARK UNBOUND:                -0.623
REMARK  Name = 
REMARK  6 active torsions:
REMARK  status: ('A' for Active; 'I' for Inactive)
REMARK    1  A    between atoms: C_1  and  C_2
REMARK    2  A    between atoms: N_7  and  C_8
REMARK    3  A    between atoms: N_13  and  C_14
REMARK    4  A    between atoms: C_14  and  C_15
REMARK    5  A    between atoms: C_15  and  C_16
REMARK    6  A    between atoms: C_21  and  N_22
REMARK                            x       y       z     vdW  Elec       q    Type
REMARK                         _______ _______ _______ _____ _____    ______ ____
ROOT
ATOM      1  C   UNL     1      -9.874  -7.784  17.097  0.00  0.00    +0.000 A 
ATOM      2  N   UNL     1     -11.143  -7.816  17.577  0.00  0.00    +0.000 NA
ATOM      3  C   UNL     1     -11.485  -6.760  18.339  0.00  0.00    +0.000 A 
ATOM      4  N   UNL     1     -10.716  -5.707  18.636  0.00  0.00    +0.000 NA
ATOM      5  C   UNL     1      -9.474  -5.685  18.126  0.00  0.00    +0.000 A 
ATOM      6  N   UNL     1      -8.661  -4.546  18.306  0.00  0.00    +0.000 N 
ATOM      7  C   UNL     1      -8.973  -6.737  17.342  0.00  0.00    +0.000 A 
ATOM      8  H   UNL     1     -12.493  -6.747  18.745  0.00  0.00    +0.000 HD
ATOM      9  H   UNL     1      -7.703  -4.840  18.452  0.00  0.00    +0.000 HD
ENDROOT
BRANCH   1  15
ATOM     10  C   UNL     1      -8.518 -12.378  15.970  0.00  0.00    +0.000 A 
ATOM     11  C   UNL     1      -8.502 -12.693  17.330  0.00  0.00    +0.000 A 
ATOM     12  C   UNL     1      -8.775 -11.700  18.263  0.00  0.00    +0.000 A 
ATOM     13  N   UNL     1      -9.053 -10.461  17.848  0.00  0.00    +0.000 N 
ATOM     14  C   UNL     1      -9.070 -10.098  16.560  0.00  0.00    +0.000 A 
ATOM     15  N   UNL     1      -9.477  -8.812  16.210  0.00  0.00    +0.000 N 
ATOM     16  C   UNL     1      -8.803 -11.064  15.588  0.00  0.00    +0.000 A 
ATOM     17  H   UNL     1      -8.296 -13.707  17.665  0.00  0.00    +0.000 HD
ATOM     18  H   UNL     1      -8.795 -11.872  19.333  0.00  0.00    +0.000 HD
ATOM     19  H   UNL     1      -9.292  -9.715  18.511  0.00  0.00    +0.000 HD
ATOM     20  H   UNL     1      -8.988  -8.434  15.406  0.00  0.00    +0.000 HD
ATOM     21  H   UNL     1      -8.848 -10.804  14.531  0.00  0.00    +0.000 HD
BRANCH  10  22
ATOM     22  C   UNL     1      -8.267 -13.422  14.919  0.00  0.00    +0.000 C 
ATOM     23  H   UNL     1      -9.104 -13.497  14.219  0.00  0.00    +0.000 HD
ATOM     24  H   UNL     1      -8.125 -14.400  15.389  0.00  0.00    +0.000 HD
ATOM     25  H   UNL     1      -7.370 -13.166  14.344  0.00  0.00    +0.000 HD
ENDBRANCH  10  22
ENDBRANCH   1  15
BRANCH   6  26
ATOM     26  C   UNL     1      -9.062  -3.636  19.384  0.00  0.00    +0.000 C 
ATOM     27  H   UNL     1     -10.068  -3.910  19.728  0.00  0.00    +0.000 HD
ATOM     28  H   UNL     1      -9.090  -2.592  19.048  0.00  0.00    +0.000 HD
BRANCH  26  29
ATOM     29  C   UNL     1      -8.052  -3.776  20.535  0.00  0.00    +0.000 C 
ATOM     30  H   UNL     1      -7.042  -3.854  20.120  0.00  0.00    +0.000 HD
ATOM     31  H   UNL     1      -8.229  -4.723  21.067  0.00  0.00    +0.000 HD
BRANCH  29  32
ATOM     32  C   UNL     1      -8.115  -2.636  21.496  0.00  0.00    +0.000 A 
ATOM     33  C   UNL     1      -7.154  -2.227  22.398  0.00  0.00    +0.000 A 
ATOM     34  C   UNL     1      -7.586  -1.120  23.184  0.00  0.00    +0.000 A 
ATOM     35  C   UNL     1      -8.862  -0.721  22.857  0.00  0.00    +0.000 A 
ATOM     36  S   UNL     1      -9.528  -1.670  21.602  0.00  0.00    +0.000 S 
ATOM     37  H   UNL     1      -6.188  -2.708  22.501  0.00  0.00    +0.000 HD
ATOM     38  H   UNL     1      -6.999  -0.643  23.957  0.00  0.00    +0.000 HD
ATOM     39  H   UNL     1      -9.437   0.083  23.296  0.00  0.00    +0.000 HD
ENDBRANCH  29  32
ENDBRANCH  26  29
ENDBRANCH   6  26
BRANCH   7  40
ATOM     40  N   UNL     1      -7.740  -6.646  16.665  0.00  0.00    +0.000 N 
ATOM     41  H   UNL     1      -7.508  -7.429  16.064  0.00  0.00    +0.000 HD
ATOM     42  H   UNL     1      -7.445  -5.756  16.298  0.00  0.00    +0.000 HD
ENDBRANCH   7  40
TORSDOF 6
ENDMDL
MODEL 2
REMARK VINA RESULT:    -9.315      1.688      2.341
REMARK INTER + INTRA:         -12.661
REMARK INTER:                 -12.445
REMARK INTRA:                  -0.216
REMARK UNBOUND:                -0.623
REMARK  Name = 
REMARK  6 active torsions:
REMARK  status: ('A' for Active; 'I' for Inactive)
REMARK    1  A    between atoms: C_1  and  C_2
REMARK    2  A    between atoms: N_7  and  C_8
REMARK    3  A    between atoms: N_13  and  C_14
REMARK    4  A    between atoms: C_14  and  C_15
REMARK    5  A    between atoms: C_15  and  C_16
REMARK    6  A    between atoms: C_21  and  N_22
REMARK                            x       y       z     vdW  Elec       q    Type
REMARK                         _______ _______ _______ _____ _____    ______ ____
ROOT
ATOM      1  C   UNL     1      -9.894  -7.760  17.095  0.00  0.00    +0.000 A 
ATOM      2  N   UNL     1     -11.153  -7.745  17.599  0.00  0.00    +0.000 NA
ATOM      3  C   UNL     1     -11.429  -6.697  18.399  0.00  0.00    +0.000 A 
ATOM      4  N   UNL     1     -10.603  -5.693  18.712  0.00  0.00    +0.000 NA
ATOM      5  C   UNL     1      -9.371  -5.716  18.178  0.00  0.00    +0.000 A 
ATOM      6  N   UNL     1      -8.500  -4.624  18.376  0.00  0.00    +0.000 N 
ATOM      7  C   UNL     1      -8.937  -6.766  17.353  0.00  0.00    +0.000 A 
ATOM      8  H   UNL     1     -12.427  -6.648  18.826  0.00  0.00    +0.000 HD
ATOM      9  H   UNL     1      -7.555  -4.968  18.494  0.00  0.00    +0.000 HD
ENDROOT
BRANCH   1  15
ATOM     10  C   UNL     1      -8.624 -12.341  15.821  0.00  0.00    +0.000 A 
ATOM     11  C   UNL     1      -8.504 -12.669  17.173  0.00  0.00    +0.000 A 
ATOM     12  C   UNL     1      -8.705 -11.686  18.135  0.00  0.00    +0.000 A 
ATOM     13  N   UNL     1      -9.016 -10.444  17.755  0.00  0.00    +0.000 N 
ATOM     14  C   UNL     1      -9.131 -10.068  16.475  0.00  0.00    +0.000 A 
ATOM     15  N   UNL     1      -9.565  -8.779  16.171  0.00  0.00    +0.000 N 
ATOM     16  C   UNL     1      -8.937 -11.023  15.476  0.00  0.00    +0.000 A 
ATOM     17  H   UNL     1      -8.272 -13.686  17.481  0.00  0.00    +0.000 HD
ATOM     18  H   UNL     1      -8.644 -11.868  19.200  0.00  0.00    +0.000 HD
ATOM     19  H   UNL     1      -9.203  -9.704  18.441  0.00  0.00    +0.000 HD
ATOM     20  H   UNL     1      -9.138  -8.392  15.335  0.00  0.00    +0.000 HD
ATOM     21  H   UNL     1      -9.063 -10.753  14.427  0.00  0.00    +0.000 HD
BRANCH  10  22
ATOM     22  C   UNL     1      -8.452 -13.373  14.744  0.00  0.00    +0.000 C 
ATOM     23  H   UNL     1      -9.176 -14.186  14.849  0.00  0.00    +0.000 HD
ATOM     24  H   UNL     1      -7.446 -13.803  14.793  0.00  0.00    +0.000 HD
ATOM     25  H   UNL     1      -8.599 -12.916  13.760  0.00  0.00    +0.000 HD
ENDBRANCH  10  22
ENDBRANCH   1  15
BRANCH   6  26
ATOM     26  C   UNL     1      -8.836  -3.729  19.488  0.00  0.00    +0.000 C 
ATOM     27  H   UNL     1      -9.927  -3.702  19.609  0.00  0.00    +0.000 HD
ATOM     28  H   UNL     1      -8.487  -2.705  19.308  0.00  0.00    +0.000 HD
BRANCH  26  29
ATOM     29  C   UNL     1      -8.175  -4.277  20.764  0.00  0.00    +0.000 C 
ATOM     30  H   UNL     1      -8.707  -5.178  21.087  0.00  0.00    +0.000 HD
ATOM     31  H   UNL     1      -8.298  -3.551  21.583  0.00  0.00    +0.000 HD
BRANCH  29  32
ATOM     32  C   UNL     1      -6.728  -4.587  20.574  0.00  0.00    +0.000 A 
ATOM     33  C   UNL     1      -6.163  -5.578  19.797  0.00  0.00    +0.000 A 
ATOM     34  C   UNL     1      -4.743  -5.598  19.895  0.00  0.00    +0.000 A 
ATOM     35  C   UNL     1      -4.269  -4.623  20.744  0.00  0.00    +0.000 A 
ATOM     36  S   UNL     1      -5.532  -3.683  21.408  0.00  0.00    +0.000 S 
ATOM     37  H   UNL     1      -6.743  -6.268  19.194  0.00  0.00    +0.000 HD
ATOM     38  H   UNL     1      -4.096  -6.295  19.380  0.00  0.00    +0.000 HD
ATOM     39  H   UNL     1      -3.241  -4.418  21.008  0.00  0.00    +0.000 HD
ENDBRANCH  29  32
ENDBRANCH  26  29
ENDBRANCH   6  26
BRANCH   7  40
ATOM     40  N   UNL     1      -7.715  -6.715  16.655  0.00  0.00    +0.000 N 
ATOM     41  H   UNL     1      -7.571  -7.442  15.963  0.00  0.00    +0.000 HD
ATOM     42  H   UNL     1      -7.341  -5.820  16.383  0.00  0.00    +0.000 HD
ENDBRANCH   7  40
TORSDOF 6
ENDMDL
MODEL 3
REMARK VINA RESULT:    -9.154      1.602      2.114
REMARK INTER + INTRA:         -12.453
REMARK INTER:                 -11.811
REMARK INTRA:                  -0.642
REMARK UNBOUND:                -0.623
REMARK  Name = 
REMARK  6 active torsions:
REMARK  status: ('A' for Active; 'I' for Inactive)
REMARK    1  A    between atoms: C_1  and  C_2
REMARK    2  A    between atoms: N_7  and  C_8
REMARK    3  A    between atoms: N_13  and  C_14
REMARK    4  A    between atoms: C_14  and  C_15
REMARK    5  A    between atoms: C_15  and  C_16
REMARK    6  A    between atoms: C_21  and  N_22
REMARK                            x       y       z     vdW  Elec       q    Type
REMARK                         _______ _______ _______ _____ _____    ______ ____
ROOT
ATOM      1  C   UNL     1      -9.645  -7.682  18.447  0.00  0.00    +0.000 A 
ATOM      2  N   UNL     1     -10.500  -6.935  17.705  0.00  0.00    +0.000 NA
ATOM      3  C   UNL     1     -10.447  -5.611  17.944  0.00  0.00    +0.000 A 
ATOM      4  N   UNL     1      -9.637  -4.988  18.807  0.00  0.00    +0.000 NA
ATOM      5  C   UNL     1      -8.780  -5.746  19.509  0.00  0.00    +0.000 A 
ATOM      6  N   UNL     1      -7.821  -5.133  20.343  0.00  0.00    +0.000 N 
ATOM      7  C   UNL     1      -8.750  -7.145  19.385  0.00  0.00    +0.000 A 
ATOM      8  H   UNL     1     -11.118  -4.977  17.372  0.00  0.00    +0.000 HD
ATOM      9  H   UNL     1      -7.706  -5.688  21.183  0.00  0.00    +0.000 HD
ENDROOT
BRANCH   1  15
ATOM     10  C   UNL     1      -8.876 -11.605  15.577  0.00  0.00    +0.000 A 
ATOM     11  C   UNL     1      -8.708 -10.755  14.483  0.00  0.00    +0.000 A 
ATOM     12  C   UNL     1      -8.870  -9.385  14.651  0.00  0.00    +0.000 A 
ATOM     13  N   UNL     1      -9.179  -8.900  15.857  0.00  0.00    +0.000 N 
ATOM     14  C   UNL     1      -9.365  -9.667  16.939  0.00  0.00    +0.000 A 
ATOM     15  N   UNL     1      -9.577  -9.070  18.180  0.00  0.00    +0.000 N 
ATOM     16  C   UNL     1      -9.212 -11.048  16.815  0.00  0.00    +0.000 A 
ATOM     17  H   UNL     1      -8.436 -11.150  13.506  0.00  0.00    +0.000 HD
ATOM     18  H   UNL     1      -8.742  -8.663  13.854  0.00  0.00    +0.000 HD
ATOM     19  H   UNL     1      -9.272  -7.891  16.022  0.00  0.00    +0.000 HD
ATOM     20  H   UNL     1     -10.208  -9.590  18.780  0.00  0.00    +0.000 HD
ATOM     21  H   UNL     1      -9.320 -11.692  17.687  0.00  0.00    +0.000 HD
BRANCH  10  22
ATOM     22  C   UNL     1      -8.676 -13.089  15.456  0.00  0.00    +0.000 C 
ATOM     23  H   UNL     1      -8.154 -13.349  14.531  0.00  0.00    +0.000 HD
ATOM     24  H   UNL     1      -9.645 -13.599  15.457  0.00  0.00    +0.000 HD
ATOM     25  H   UNL     1      -8.076 -13.456  16.295  0.00  0.00    +0.000 HD
ENDBRANCH  10  22
ENDBRANCH   1  15
BRANCH   6  26
ATOM     26  C   UNL     1      -8.090  -3.739  20.712  0.00  0.00    +0.000 C 
ATOM     27  H   UNL     1      -9.131  -3.652  21.049  0.00  0.00    +0.000 HD
ATOM     28  H   UNL     1      -7.947  -3.058  19.864  0.00  0.00    +0.000 HD
BRANCH  26  29
ATOM     29  C   UNL     1      -7.131  -3.347  21.849  0.00  0.00    +0.000 C 
ATOM     30  H   UNL     1      -6.269  -2.819  21.428  0.00  0.00    +0.000 HD
ATOM     31  H   UNL     1      -6.722  -4.256  22.315  0.00  0.00    +0.000 HD
BRANCH  29  32
ATOM     32  C   UNL     1      -7.787  -2.497  22.886  0.00  0.00    +0.000 A 
ATOM     33  C   UNL     1      -7.807  -1.120  22.971  0.00  0.00    +0.000 A 
ATOM     34  C   UNL     1      -8.500  -0.660  24.127  0.00  0.00    +0.000 A 
ATOM     35  C   UNL     1      -8.986  -1.700  24.887  0.00  0.00    +0.000 A 
ATOM     36  S   UNL     1      -8.616  -3.221  24.201  0.00  0.00    +0.000 S 
ATOM     37  H   UNL     1      -7.334  -0.469  22.244  0.00  0.00    +0.000 HD
ATOM     38  H   UNL     1      -8.631   0.379  24.398  0.00  0.00    +0.000 HD
ATOM     39  H   UNL     1      -9.539  -1.640  25.814  0.00  0.00    +0.000 HD
ENDBRANCH  29  32
ENDBRANCH  26  29
ENDBRANCH   6  26
BRANCH   7  40
ATOM     40  N   UNL     1      -7.746  -7.929  19.986  0.00  0.00    +0.000 N 
ATOM     41  H   UNL     1      -7.947  -8.263  20.922  0.00  0.00    +0.000 HD
ATOM     42  H   UNL     1      -7.237  -8.592  19.423  0.00  0.00    +0.000 HD
ENDBRANCH   7  40
TORSDOF 6
ENDMDL
MODEL 4
REMARK VINA RESULT:    -9.149      1.669      2.242
REMARK INTER + INTRA:         -12.446
REMARK INTER:                 -11.758
REMARK INTRA:                  -0.689
REMARK UNBOUND:                -0.623
REMARK  Name = 
REMARK  6 active torsions:
REMARK  status: ('A' for Active; 'I' for Inactive)
REMARK    1  A    between atoms: C_1  and  C_2
REMARK    2  A    between atoms: N_7  and  C_8
REMARK    3  A    between atoms: N_13  and  C_14
REMARK    4  A    between atoms: C_14  and  C_15
REMARK    5  A    between atoms: C_15  and  C_16
REMARK    6  A    between atoms: C_21  and  N_22
REMARK                            x       y       z     vdW  Elec       q    Type
REMARK                         _______ _______ _______ _____ _____    ______ ____
ROOT
ATOM      1  C   UNL     1      -9.918  -7.326  18.162  0.00  0.00    +0.000 A 
ATOM      2  N   UNL     1     -10.709  -6.735  17.232  0.00  0.00    +0.000 NA
ATOM      3  C   UNL     1     -10.757  -5.391  17.302  0.00  0.00    +0.000 A 
ATOM      4  N   UNL     1     -10.097  -4.614  18.168  0.00  0.00    +0.000 NA
ATOM      5  C   UNL     1      -9.299  -5.221  19.060  0.00  0.00    +0.000 A 
ATOM      6  N   UNL     1      -8.487  -4.447  19.918  0.00  0.00    +0.000 N 
ATOM      7  C   UNL     1      -9.180  -6.619  19.123  0.00  0.00    +0.000 A 
ATOM      8  H   UNL     1     -11.381  -4.878  16.576  0.00  0.00    +0.000 HD
ATOM      9  H   UNL     1      -8.452  -4.886  20.829  0.00  0.00    +0.000 HD
ENDROOT
BRANCH   1  15
ATOM     10  C   UNL     1      -8.755 -11.526  15.876  0.00  0.00    +0.000 A 
ATOM     11  C   UNL     1      -8.595 -10.817  14.684  0.00  0.00    +0.000 A 
ATOM     12  C   UNL     1      -8.857  -9.452  14.660  0.00  0.00    +0.000 A 
ATOM     13  N   UNL     1      -9.253  -8.836  15.778  0.00  0.00    +0.000 N 
ATOM     14  C   UNL     1      -9.436  -9.466  16.945  0.00  0.00    +0.000 A 
ATOM     15  N   UNL     1      -9.745  -8.728  18.086  0.00  0.00    +0.000 N 
ATOM     16  C   UNL     1      -9.185 -10.837  17.014  0.00  0.00    +0.000 A 
ATOM     17  H   UNL     1      -8.252 -11.316  13.780  0.00  0.00    +0.000 HD
ATOM     18  H   UNL     1      -8.742  -8.834  13.779  0.00  0.00    +0.000 HD
ATOM     19  H   UNL     1      -9.422  -7.825  15.802  0.00  0.00    +0.000 HD
ATOM     20  H   UNL     1     -10.366  -9.209  18.727  0.00  0.00    +0.000 HD
ATOM     21  H   UNL     1      -9.289 -11.367  17.961  0.00  0.00    +0.000 HD
BRANCH  10  22
ATOM     22  C   UNL     1      -8.451 -12.994  15.963  0.00  0.00    +0.000 C 
ATOM     23  H   UNL     1      -8.975 -13.559  15.186  0.00  0.00    +0.000 HD
ATOM     24  H   UNL     1      -8.760 -13.384  16.937  0.00  0.00    +0.000 HD
ATOM     25  H   UNL     1      -7.376 -13.162  15.833  0.00  0.00    +0.000 HD
ENDBRANCH  10  22
ENDBRANCH   1  15
BRANCH   6  26
ATOM     26  C   UNL     1      -8.873  -3.040  20.068  0.00  0.00    +0.000 C 
ATOM     27  H   UNL     1      -9.962  -2.979  20.195  0.00  0.00    +0.000 HD
ATOM     28  H   UNL     1      -8.599  -2.445  19.188  0.00  0.00    +0.000 HD
BRANCH  26  29
ATOM     29  C   UNL     1      -8.162  -2.474  21.309  0.00  0.00    +0.000 C 
ATOM     30  H   UNL     1      -7.824  -1.455  21.097  0.00  0.00    +0.000 HD
ATOM     31  H   UNL     1      -7.249  -3.055  21.506  0.00  0.00    +0.000 HD
BRANCH  29  32
ATOM     32  C   UNL     1      -9.034  -2.475  22.520  0.00  0.00    +0.000 A 
ATOM     33  C   UNL     1     -10.291  -1.923  22.666  0.00  0.00    +0.000 A 
ATOM     34  C   UNL     1     -10.802  -2.083  23.986  0.00  0.00    +0.000 A 
ATOM     35  C   UNL     1      -9.920  -2.752  24.804  0.00  0.00    +0.000 A 
ATOM     36  S   UNL     1      -8.489  -3.191  23.980  0.00  0.00    +0.000 S 
ATOM     37  H   UNL     1     -10.817  -1.413  21.866  0.00  0.00    +0.000 HD
ATOM     38  H   UNL     1     -11.763  -1.721  24.326  0.00  0.00    +0.000 HD
ATOM     39  H   UNL     1     -10.046  -3.002  25.848  0.00  0.00    +0.000 HD
ENDBRANCH  29  32
ENDBRANCH  26  29
ENDBRANCH   6  26
BRANCH   7  40
ATOM     40  N   UNL     1      -8.222  -7.254  19.936  0.00  0.00    +0.000 N 
ATOM     41  H   UNL     1      -8.270  -8.266  19.968  0.00  0.00    +0.000 HD
ATOM     42  H   UNL     1      -7.281  -6.896  19.959  0.00  0.00    +0.000 HD
ENDBRANCH   7  40
TORSDOF 6
ENDMDL
MODEL 5
REMARK VINA RESULT:    -9.088      2.991      9.142
REMARK INTER + INTRA:         -12.368
REMARK INTER:                 -11.739
REMARK INTRA:                  -0.629
REMARK UNBOUND:                -0.623
REMARK  Name = 
REMARK  6 active torsions:
REMARK  status: ('A' for Active; 'I' for Inactive)
REMARK    1  A    between atoms: C_1  and  C_2
REMARK    2  A    between atoms: N_7  and  C_8
REMARK    3  A    between atoms: N_13  and  C_14
REMARK    4  A    between atoms: C_14  and  C_15
REMARK    5  A    between atoms: C_15  and  C_16
REMARK    6  A    between atoms: C_21  and  N_22
REMARK                            x       y       z     vdW  Elec       q    Type
REMARK                         _______ _______ _______ _____ _____    ______ ____
ROOT
ATOM      1  C   UNL     1      -7.727  -3.899  20.500  0.00  0.00    +0.000 A 
ATOM      2  N   UNL     1      -6.498  -4.433  20.711  0.00  0.00    +0.000 NA
ATOM      3  C   UNL     1      -6.197  -5.485  19.926  0.00  0.00    +0.000 A 
ATOM      4  N   UNL     1      -6.971  -6.018  18.975  0.00  0.00    +0.000 NA
ATOM      5  C   UNL     1      -8.172  -5.454  18.767  0.00  0.00    +0.000 A 
ATOM      6  N   UNL     1      -8.980  -5.897  17.698  0.00  0.00    +0.000 N 
ATOM      7  C   UNL     1      -8.629  -4.371  19.535  0.00  0.00    +0.000 A 
ATOM      8  H   UNL     1      -5.222  -5.945  20.064  0.00  0.00    +0.000 HD
ATOM      9  H   UNL     1      -9.950  -5.889  17.988  0.00  0.00    +0.000 HD
ENDROOT
BRANCH   1  15
ATOM     10  C   UNL     1      -8.829  -1.379  24.581  0.00  0.00    +0.000 A 
ATOM     11  C   UNL     1      -8.817  -2.573  25.306  0.00  0.00    +0.000 A 
ATOM     12  C   UNL     1      -8.594  -3.773  24.640  0.00  0.00    +0.000 A 
ATOM     13  N   UNL     1      -8.389  -3.768  23.320  0.00  0.00    +0.000 N 
ATOM     14  C   UNL     1      -8.403  -2.657  22.572  0.00  0.00    +0.000 A 
ATOM     15  N   UNL     1      -8.071  -2.731  21.221  0.00  0.00    +0.000 N 
ATOM     16  C   UNL     1      -8.623  -1.430  23.199  0.00  0.00    +0.000 A 
ATOM     17  H   UNL     1      -8.963  -2.573  26.384  0.00  0.00    +0.000 HD
ATOM     18  H   UNL     1      -8.555  -4.735  25.136  0.00  0.00    +0.000 HD
ATOM     19  H   UNL     1      -8.188  -4.633  22.806  0.00  0.00    +0.000 HD
ATOM     20  H   UNL     1      -8.587  -2.080  20.639  0.00  0.00    +0.000 HD
ATOM     21  H   UNL     1      -8.600  -0.507  22.621  0.00  0.00    +0.000 HD
BRANCH  10  22
ATOM     22  C   UNL     1      -9.029  -0.053  25.257  0.00  0.00    +0.000 C 
ATOM     23  H   UNL     1      -9.408  -0.176  26.276  0.00  0.00    +0.000 HD
ATOM     24  H   UNL     1      -9.749   0.550  24.695  0.00  0.00    +0.000 HD
ATOM     25  H   UNL     1      -8.078   0.486  25.316  0.00  0.00    +0.000 HD
ENDBRANCH  10  22
ENDBRANCH   1  15
BRANCH   6  26
ATOM     26  C   UNL     1      -8.646  -7.214  17.145  0.00  0.00    +0.000 C 
ATOM     27  H   UNL     1      -7.565  -7.379  17.241  0.00  0.00    +0.000 HD
ATOM     28  H   UNL     1      -8.910  -7.290  16.083  0.00  0.00    +0.000 HD
BRANCH  26  29
ATOM     29  C   UNL     1      -9.417  -8.281  17.941  0.00  0.00    +0.000 C 
ATOM     30  H   UNL     1     -10.481  -8.020  17.957  0.00  0.00    +0.000 HD
ATOM     31  H   UNL     1      -9.092  -8.263  18.992  0.00  0.00    +0.000 HD
BRANCH  29  32
ATOM     32  C   UNL     1      -9.243  -9.653  17.380  0.00  0.00    +0.000 A 
ATOM     33  C   UNL     1      -8.821 -10.793  18.032  0.00  0.00    +0.000 A 
ATOM     34  C   UNL     1      -8.736 -11.915  17.159  0.00  0.00    +0.000 A 
ATOM     35  C   UNL     1      -9.095 -11.595  15.869  0.00  0.00    +0.000 A 
ATOM     36  S   UNL     1      -9.542  -9.953  15.718  0.00  0.00    +0.000 S 
ATOM     37  H   UNL     1      -8.571 -10.821  19.087  0.00  0.00    +0.000 HD
ATOM     38  H   UNL     1      -8.419 -12.907  17.453  0.00  0.00    +0.000 HD
ATOM     39  H   UNL     1      -9.114 -12.247  15.006  0.00  0.00    +0.000 HD
ENDBRANCH  29  32
ENDBRANCH  26  29
ENDBRANCH   6  26
BRANCH   7  40
ATOM     40  N   UNL     1      -9.806  -3.668  19.214  0.00  0.00    +0.000 N 
ATOM     41  H   UNL     1      -9.679  -2.805  18.698  0.00  0.00    +0.000 HD
ATOM     42  H   UNL     1     -10.627  -4.183  18.940  0.00  0.00    +0.000 HD
ENDBRANCH   7  40
TORSDOF 6
ENDMDL
MODEL 6
REMARK VINA RESULT:    -8.982      3.071      8.736
REMARK INTER + INTRA:         -12.231
REMARK INTER:                 -11.680
REMARK INTRA:                  -0.551
REMARK UNBOUND:                -0.623
REMARK  Name = 
REMARK  6 active torsions:
REMARK  status: ('A' for Active; 'I' for Inactive)
REMARK    1  A    between atoms: C_1  and  C_2
REMARK    2  A    between atoms: N_7  and  C_8
REMARK    3  A    between atoms: N_13  and  C_14
REMARK    4  A    between atoms: C_14  and  C_15
REMARK    5  A    between atoms: C_15  and  C_16
REMARK    6  A    between atoms: C_21  and  N_22
REMARK                            x       y       z     vdW  Elec       q    Type
REMARK                         _______ _______ _______ _____ _____    ______ ____
ROOT
ATOM      1  C   UNL     1      -9.027  -6.314  18.029  0.00  0.00    +0.000 A 
ATOM      2  N   UNL     1      -9.158  -5.584  16.893  0.00  0.00    +0.000 NA
ATOM      3  C   UNL     1      -9.440  -6.303  15.790  0.00  0.00    +0.000 A 
ATOM      4  N   UNL     1      -9.617  -7.626  15.723  0.00  0.00    +0.000 NA
ATOM      5  C   UNL     1      -9.510  -8.323  16.866  0.00  0.00    +0.000 A 
ATOM      6  N   UNL     1      -9.805  -9.703  16.878  0.00  0.00    +0.000 N 
ATOM      7  C   UNL     1      -9.186  -7.707  18.086  0.00  0.00    +0.000 A 
ATOM      8  H   UNL     1      -9.551  -5.757  14.857  0.00  0.00    +0.000 HD
ATOM      9  H   UNL     1      -9.161 -10.176  17.499  0.00  0.00    +0.000 HD
ENDROOT
BRANCH   1  15
ATOM     10  C   UNL     1      -6.285  -4.072  21.446  0.00  0.00    +0.000 A 
ATOM     11  C   UNL     1      -5.134  -4.457  20.756  0.00  0.00    +0.000 A 
ATOM     12  C   UNL     1      -5.253  -5.240  19.613  0.00  0.00    +0.000 A 
ATOM     13  N   UNL     1      -6.464  -5.608  19.188  0.00  0.00    +0.000 N 
ATOM     14  C   UNL     1      -7.601  -5.281  19.816  0.00  0.00    +0.000 A 
ATOM     15  N   UNL     1      -8.826  -5.616  19.243  0.00  0.00    +0.000 N 
ATOM     16  C   UNL     1      -7.528  -4.495  20.967  0.00  0.00    +0.000 A 
ATOM     17  H   UNL     1      -4.149  -4.138  21.091  0.00  0.00    +0.000 HD
ATOM     18  H   UNL     1      -4.408  -5.564  19.018  0.00  0.00    +0.000 HD
ATOM     19  H   UNL     1      -6.587  -6.157  18.330  0.00  0.00    +0.000 HD
ATOM     20  H   UNL     1      -9.544  -5.847  19.922  0.00  0.00    +0.000 HD
ATOM     21  H   UNL     1      -8.440  -4.182  21.475  0.00  0.00    +0.000 HD
BRANCH  10  22
ATOM     22  C   UNL     1      -6.214  -3.197  22.664  0.00  0.00    +0.000 C 
ATOM     23  H   UNL     1      -5.223  -2.746  22.777  0.00  0.00    +0.000 HD
ATOM     24  H   UNL     1      -6.425  -3.785  23.562  0.00  0.00    +0.000 HD
ATOM     25  H   UNL     1      -6.945  -2.385  22.586  0.00  0.00    +0.000 HD
ENDBRANCH  10  22
ENDBRANCH   1  15
BRANCH   6  26
ATOM     26  C   UNL     1      -9.803 -10.370  15.571  0.00  0.00    +0.000 C 
ATOM     27  H   UNL     1      -9.901  -9.613  14.782  0.00  0.00    +0.000 HD
ATOM     28  H   UNL     1     -10.636 -11.076  15.472  0.00  0.00    +0.000 HD
BRANCH  26  29
ATOM     29  C   UNL     1      -8.472 -11.126  15.418  0.00  0.00    +0.000 C 
ATOM     30  H   UNL     1      -7.709 -10.641  16.036  0.00  0.00    +0.000 HD
ATOM     31  H   UNL     1      -8.115 -11.035  14.381  0.00  0.00    +0.000 HD
BRANCH  29  32
ATOM     32  C   UNL     1      -8.583 -12.566  15.791  0.00  0.00    +0.000 A 
ATOM     33  C   UNL     1      -8.757 -13.652  14.958  0.00  0.00    +0.000 A 
ATOM     34  C   UNL     1      -8.863 -14.876  15.679  0.00  0.00    +0.000 A 
ATOM     35  C   UNL     1      -8.767 -14.684  17.039  0.00  0.00    +0.000 A 
ATOM     36  S   UNL     1      -8.540 -13.039  17.440  0.00  0.00    +0.000 S 
ATOM     37  H   UNL     1      -8.820 -13.573  13.878  0.00  0.00    +0.000 HD
ATOM     38  H   UNL     1      -9.011 -15.849  15.230  0.00  0.00    +0.000 HD
ATOM     39  H   UNL     1      -8.821 -15.432  17.818  0.00  0.00    +0.000 HD
ENDBRANCH  29  32
ENDBRANCH  26  29
ENDBRANCH   6  26
BRANCH   7  40
ATOM     40  N   UNL     1      -9.239  -8.398  19.312  0.00  0.00    +0.000 N 
ATOM     41  H   UNL     1      -8.406  -8.917  19.563  0.00  0.00    +0.000 HD
ATOM     42  H   UNL     1      -9.697  -7.967  20.099  0.00  0.00    +0.000 HD
ENDBRANCH   7  40
TORSDOF 6
ENDMDL
MODEL 7
REMARK VINA RESULT:    -8.964      2.865      3.770
REMARK INTER + INTRA:         -12.207
REMARK INTER:                 -11.733
REMARK INTRA:                  -0.475
REMARK UNBOUND:                -0.623
REMARK  Name = 
REMARK  6 active torsions:
REMARK  status: ('A' for Active; 'I' for Inactive)
REMARK    1  A    between atoms: C_1  and  C_2
REMARK    2  A    between atoms: N_7  and  C_8
REMARK    3  A    between atoms: N_13  and  C_14
REMARK    4  A    between atoms: C_14  and  C_15
REMARK    5  A    between atoms: C_15  and  C_16
REMARK    6  A    between atoms: C_21  and  N_22
REMARK                            x       y       z     vdW  Elec       q    Type
REMARK                         _______ _______ _______ _____ _____    ______ ____
ROOT
ATOM      1  C   UNL     1      -9.283  -8.045  17.141  0.00  0.00    +0.000 A 
ATOM      2  N   UNL     1      -8.501  -8.051  18.249  0.00  0.00    +0.000 NA
ATOM      3  C   UNL     1      -8.728  -7.038  19.107  0.00  0.00    +0.000 A 
ATOM      4  N   UNL     1      -9.642  -6.071  18.976  0.00  0.00    +0.000 NA
ATOM      5  C   UNL     1     -10.424  -6.103  17.884  0.00  0.00    +0.000 A 
ATOM      6  N   UNL     1     -11.484  -5.180  17.752  0.00  0.00    +0.000 N 
ATOM      7  C   UNL     1     -10.274  -7.083  16.890  0.00  0.00    +0.000 A 
ATOM      8  H   UNL     1      -8.120  -7.004  20.007  0.00  0.00    +0.000 HD
ATOM      9  H   UNL     1     -11.560  -4.897  16.784  0.00  0.00    +0.000 HD
ENDROOT
BRANCH   1  15
ATOM     10  C   UNL     1      -8.678 -12.792  15.993  0.00  0.00    +0.000 A 
ATOM     11  C   UNL     1      -8.463 -13.077  17.343  0.00  0.00    +0.000 A 
ATOM     12  C   UNL     1      -8.454 -12.038  18.267  0.00  0.00    +0.000 A 
ATOM     13  N   UNL     1      -8.656 -10.785  17.854  0.00  0.00    +0.000 N 
ATOM     14  C   UNL     1      -8.855 -10.450  16.572  0.00  0.00    +0.000 A 
ATOM     15  N   UNL     1      -9.166  -9.132  16.244  0.00  0.00    +0.000 N 
ATOM     16  C   UNL     1      -8.872 -11.461  15.611  0.00  0.00    +0.000 A 
ATOM     17  H   UNL     1      -8.319 -14.101  17.681  0.00  0.00    +0.000 HD
ATOM     18  H   UNL     1      -8.308 -12.183  19.330  0.00  0.00    +0.000 HD
ATOM     19  H   UNL     1      -8.689 -10.000  18.515  0.00  0.00    +0.000 HD
ATOM     20  H   UNL     1      -8.784  -8.833  15.353  0.00  0.00    +0.000 HD
ATOM     21  H   UNL     1      -9.069 -11.221  14.566  0.00  0.00    +0.000 HD
BRANCH  10  22
ATOM     22  C   UNL     1      -8.733 -13.880  14.960  0.00  0.00    +0.000 C 
ATOM     23  H   UNL     1      -9.737 -14.308  14.881  0.00  0.00    +0.000 HD
ATOM     24  H   UNL     1      -8.039 -14.684  15.224  0.00  0.00    +0.000 HD
ATOM     25  H   UNL     1      -8.461 -13.479  13.978  0.00  0.00    +0.000 HD
ENDBRANCH  10  22
ENDBRANCH   1  15
BRANCH   6  26
ATOM     26  C   UNL     1     -11.406  -3.989  18.605  0.00  0.00    +0.000 C 
ATOM     27  H   UNL     1     -10.867  -4.243  19.527  0.00  0.00    +0.000 HD
ATOM     28  H   UNL     1     -12.401  -3.619  18.881  0.00  0.00    +0.000 HD
BRANCH  26  29
ATOM     29  C   UNL     1     -10.649  -2.893  17.835  0.00  0.00    +0.000 C 
ATOM     30  H   UNL     1     -10.015  -3.360  17.073  0.00  0.00    +0.000 HD
ATOM     31  H   UNL     1      -9.960  -2.374  18.517  0.00  0.00    +0.000 HD
BRANCH  29  32
ATOM     32  C   UNL     1     -11.566  -1.907  17.191  0.00  0.00    +0.000 A 
ATOM     33  C   UNL     1     -12.550  -2.143  16.253  0.00  0.00    +0.000 A 
ATOM     34  C   UNL     1     -13.197  -0.945  15.835  0.00  0.00    +0.000 A 
ATOM     35  C   UNL     1     -12.687   0.166  16.467  0.00  0.00    +0.000 A 
ATOM     36  S   UNL     1     -11.441  -0.238  17.565  0.00  0.00    +0.000 S 
ATOM     37  H   UNL     1     -12.788  -3.130  15.872  0.00  0.00    +0.000 HD
ATOM     38  H   UNL     1     -13.991  -0.894  15.102  0.00  0.00    +0.000 HD
ATOM     39  H   UNL     1     -12.984   1.197  16.335  0.00  0.00    +0.000 HD
ENDBRANCH  29  32
ENDBRANCH  26  29
ENDBRANCH   6  26
BRANCH   7  40
ATOM     40  N   UNL     1     -11.194  -7.225  15.833  0.00  0.00    +0.000 N 
ATOM     41  H   UNL     1     -12.168  -7.308  16.103  0.00  0.00    +0.000 HD
ATOM     42  H   UNL     1     -11.054  -6.698  14.986  0.00  0.00    +0.000 HD
ENDBRANCH   7  40
TORSDOF 6
ENDMDL
MODEL 8
REMARK VINA RESULT:    -8.950      2.889      4.766
REMARK INTER + INTRA:         -12.190
REMARK INTER:                 -11.602
REMARK INTRA:                  -0.587
REMARK UNBOUND:                -0.623
REMARK  Name = 
REMARK  6 active torsions:
REMARK  status: ('A' for Active; 'I' for Inactive)
REMARK    1  A    between atoms: C_1  and  C_2
REMARK    2  A    between atoms: N_7  and  C_8
REMARK    3  A    between atoms: N_13  and  C_14
REMARK    4  A    between atoms: C_14  and  C_15
REMARK    5  A    between atoms: C_15  and  C_16
REMARK    6  A    between atoms: C_21  and  N_22
REMARK                            x       y       z     vdW  Elec       q    Type
REMARK                         _______ _______ _______ _____ _____    ______ ____
ROOT
ATOM      1  C   UNL     1      -9.431  -7.305  18.213  0.00  0.00    +0.000 A 
ATOM      2  N   UNL     1      -8.320  -6.673  18.668  0.00  0.00    +0.000 NA
ATOM      3  C   UNL     1      -8.452  -5.342  18.823  0.00  0.00    +0.000 A 
ATOM      4  N   UNL     1      -9.552  -4.617  18.595  0.00  0.00    +0.000 NA
ATOM      5  C   UNL     1     -10.646  -5.270  18.173  0.00  0.00    +0.000 A 
ATOM      6  N   UNL     1     -11.867  -4.576  18.032  0.00  0.00    +0.000 N 
ATOM      7  C   UNL     1     -10.642  -6.654  17.936  0.00  0.00    +0.000 A 
ATOM      8  H   UNL     1      -7.584  -4.797  19.184  0.00  0.00    +0.000 HD
ATOM      9  H   UNL     1     -12.357  -4.925  17.218  0.00  0.00    +0.000 HD
ENDROOT
BRANCH   1  15
ATOM     10  C   UNL     1      -8.794 -11.569  15.840  0.00  0.00    +0.000 A 
ATOM     11  C   UNL     1      -8.629 -10.865  14.646  0.00  0.00    +0.000 A 
ATOM     12  C   UNL     1      -8.761  -9.481  14.646  0.00  0.00    +0.000 A 
ATOM     13  N   UNL     1      -9.037  -8.844  15.787  0.00  0.00    +0.000 N 
ATOM     14  C   UNL     1      -9.219  -9.467  16.958  0.00  0.00    +0.000 A 
ATOM     15  N   UNL     1      -9.396  -8.717  18.119  0.00  0.00    +0.000 N 
ATOM     16  C   UNL     1      -9.095 -10.856  17.004  0.00  0.00    +0.000 A 
ATOM     17  H   UNL     1      -8.383 -11.383  13.722  0.00  0.00    +0.000 HD
ATOM     18  H   UNL     1      -8.633  -8.866  13.764  0.00  0.00    +0.000 HD
ATOM     19  H   UNL     1      -9.107  -7.821  15.827  0.00  0.00    +0.000 HD
ATOM     20  H   UNL     1     -10.026  -9.144  18.789  0.00  0.00    +0.000 HD
ATOM     21  H   UNL     1      -9.200 -11.385  17.951  0.00  0.00    +0.000 HD
BRANCH  10  22
ATOM     22  C   UNL     1      -8.626 -13.061  15.901  0.00  0.00    +0.000 C 
ATOM     23  H   UNL     1      -8.068 -13.365  16.791  0.00  0.00    +0.000 HD
ATOM     24  H   UNL     1      -8.083 -13.414  15.019  0.00  0.00    +0.000 HD
ATOM     25  H   UNL     1      -9.607 -13.547  15.937  0.00  0.00    +0.000 HD
ENDBRANCH  10  22
ENDBRANCH   1  15
BRANCH   6  26
ATOM     26  C   UNL     1     -11.768  -3.115  17.953  0.00  0.00    +0.000 C 
ATOM     27  H   UNL     1     -10.710  -2.825  17.979  0.00  0.00    +0.000 HD
ATOM     28  H   UNL     1     -12.277  -2.625  18.792  0.00  0.00    +0.000 HD
BRANCH  26  29
ATOM     29  C   UNL     1     -12.409  -2.659  16.631  0.00  0.00    +0.000 C 
ATOM     30  H   UNL     1     -12.620  -1.586  16.684  0.00  0.00    +0.000 HD
ATOM     31  H   UNL     1     -13.387  -3.148  16.508  0.00  0.00    +0.000 HD
BRANCH  29  32
ATOM     32  C   UNL     1     -11.546  -2.945  15.447  0.00  0.00    +0.000 A 
ATOM     33  C   UNL     1     -11.589  -4.038  14.605  0.00  0.00    +0.000 A 
ATOM     34  C   UNL     1     -10.577  -3.988  13.603  0.00  0.00    +0.000 A 
ATOM     35  C   UNL     1      -9.796  -2.860  13.713  0.00  0.00    +0.000 A 
ATOM     36  S   UNL     1     -10.289  -1.863  15.010  0.00  0.00    +0.000 S 
ATOM     37  H   UNL     1     -12.304  -4.846  14.710  0.00  0.00    +0.000 HD
ATOM     38  H   UNL     1     -10.420  -4.742  12.844  0.00  0.00    +0.000 HD
ATOM     39  H   UNL     1      -8.957  -2.573  13.094  0.00  0.00    +0.000 HD
ENDBRANCH  29  32
ENDBRANCH  26  29
ENDBRANCH   6  26
BRANCH   7  40
ATOM     40  N   UNL     1     -11.823  -7.371  17.659  0.00  0.00    +0.000 N 
ATOM     41  H   UNL     1     -12.252  -7.184  16.759  0.00  0.00    +0.000 HD
ATOM     42  H   UNL     1     -11.892  -8.334  17.946  0.00  0.00    +0.000 HD
ENDBRANCH   7  40
TORSDOF 6
ENDMDL
MODEL 9
REMARK VINA RESULT:    -8.810      1.458      2.016
REMARK INTER + INTRA:         -12.009
REMARK INTER:                 -11.647
REMARK INTRA:                  -0.362
REMARK UNBOUND:                -0.623
REMARK  Name = 
REMARK  6 active torsions:
REMARK  status: ('A' for Active; 'I' for Inactive)
REMARK    1  A    between atoms: C_1  and  C_2
REMARK    2  A    between atoms: N_7  and  C_8
REMARK    3  A    between atoms: N_13  and  C_14
REMARK    4  A    between atoms: C_14  and  C_15
REMARK    5  A    between atoms: C_15  and  C_16
REMARK    6  A    between atoms: C_21  and  N_22
REMARK                            x       y       z     vdW  Elec       q    Type
REMARK                         _______ _______ _______ _____ _____    ______ ____
ROOT
ATOM      1  C   UNL     1      -9.327  -8.771  17.404  0.00  0.00    +0.000 A 
ATOM      2  N   UNL     1      -8.843  -8.958  18.658  0.00  0.00    +0.000 NA
ATOM      3  C   UNL     1      -9.124  -7.968  19.526  0.00  0.00    +0.000 A 
ATOM      4  N   UNL     1      -9.833  -6.863  19.273  0.00  0.00    +0.000 NA
ATOM      5  C   UNL     1     -10.325  -6.714  18.033  0.00  0.00    +0.000 A 
ATOM      6  N   UNL     1     -11.181  -5.629  17.742  0.00  0.00    +0.000 N 
ATOM      7  C   UNL     1     -10.082  -7.653  17.018  0.00  0.00    +0.000 A 
ATOM      8  H   UNL     1      -8.752  -8.078  20.541  0.00  0.00    +0.000 HD
ATOM      9  H   UNL     1     -10.981  -5.288  16.811  0.00  0.00    +0.000 HD
ENDROOT
BRANCH   1  15
ATOM     10  C   UNL     1      -8.728 -13.470  16.071  0.00  0.00    +0.000 A 
ATOM     11  C   UNL     1      -8.643 -13.828  17.418  0.00  0.00    +0.000 A 
ATOM     12  C   UNL     1      -8.695 -12.837  18.392  0.00  0.00    +0.000 A 
ATOM     13  N   UNL     1      -8.831 -11.559  18.028  0.00  0.00    +0.000 N 
ATOM     14  C   UNL     1      -8.903 -11.156  16.753  0.00  0.00    +0.000 A 
ATOM     15  N   UNL     1      -9.153  -9.815  16.466  0.00  0.00    +0.000 N 
ATOM     16  C   UNL     1      -8.855 -12.117  15.742  0.00  0.00    +0.000 A 
ATOM     17  H   UNL     1      -8.554 -14.871  17.714  0.00  0.00    +0.000 HD
ATOM     18  H   UNL     1      -8.651 -13.038  19.455  0.00  0.00    +0.000 HD
ATOM     19  H   UNL     1      -8.906 -10.808  18.723  0.00  0.00    +0.000 HD
ATOM     20  H   UNL     1      -8.684  -9.483  15.630  0.00  0.00    +0.000 HD
ATOM     21  H   UNL     1      -8.950 -11.820  14.698  0.00  0.00    +0.000 HD
BRANCH  10  22
ATOM     22  C   UNL     1      -8.712 -14.504  14.982  0.00  0.00    +0.000 C 
ATOM     23  H   UNL     1      -8.959 -14.067  14.010  0.00  0.00    +0.000 HD
ATOM     24  H   UNL     1      -9.444 -15.289  15.199  0.00  0.00    +0.000 HD
ATOM     25  H   UNL     1      -7.716 -14.954  14.905  0.00  0.00    +0.000 HD
ENDBRANCH  10  22
ENDBRANCH   1  15
BRANCH   6  26
ATOM     26  C   UNL     1     -11.142  -4.511  18.691  0.00  0.00    +0.000 C 
ATOM     27  H   UNL     1     -11.075  -4.910  19.712  0.00  0.00    +0.000 HD
ATOM     28  H   UNL     1     -12.043  -3.890  18.626  0.00  0.00    +0.000 HD
BRANCH  26  29
ATOM     29  C   UNL     1      -9.905  -3.653  18.375  0.00  0.00    +0.000 C 
ATOM     30  H   UNL     1     -10.221  -2.747  17.847  0.00  0.00    +0.000 HD
ATOM     31  H   UNL     1      -9.252  -4.193  17.673  0.00  0.00    +0.000 HD
BRANCH  29  32
ATOM     32  C   UNL     1      -9.137  -3.281  19.599  0.00  0.00    +0.000 A 
ATOM     33  C   UNL     1      -8.135  -3.994  20.226  0.00  0.00    +0.000 A 
ATOM     34  C   UNL     1      -7.661  -3.342  21.400  0.00  0.00    +0.000 A 
ATOM     35  C   UNL     1      -8.315  -2.152  21.631  0.00  0.00    +0.000 A 
ATOM     36  S   UNL     1      -9.486  -1.823  20.431  0.00  0.00    +0.000 S 
ATOM     37  H   UNL     1      -7.767  -4.949  19.868  0.00  0.00    +0.000 HD
ATOM     38  H   UNL     1      -6.886  -3.724  22.050  0.00  0.00    +0.000 HD
ATOM     39  H   UNL     1      -8.162  -1.462  22.448  0.00  0.00    +0.000 HD
ENDBRANCH  29  32
ENDBRANCH  26  29
ENDBRANCH   6  26
BRANCH   7  40
ATOM     40  N   UNL     1     -10.731  -7.593  15.769  0.00  0.00    +0.000 N 
ATOM     41  H   UNL     1     -11.744  -7.560  15.799  0.00  0.00    +0.000 HD
ATOM     42  H   UNL     1     -10.331  -7.032  15.034  0.00  0.00    +0.000 HD
ENDBRANCH   7  40
TORSDOF 6
ENDMDL
