REMARK  Name = 
REMARK  6 active torsions:
REMARK  status: ('A' for Active; 'I' for Inactive)
REMARK    1  A    between atoms: C_1  and  S_2
REMARK    2  A    between atoms: S_2  and  C_3
REMARK    3  A    between atoms: C_10  and  O_11
REMARK    4  A    between atoms: C_12  and  C_13
REMARK    5  A    between atoms: C_16  and  C_17
REMARK    6  A    between atoms: C_20  and  C_21
REMARK                            x       y       z     vdW  Elec       q    Type
REMARK                         _______ _______ _______ _____ _____    ______ ____
ROOT
ATOM      1  C   UNL     1      -0.968  -4.954   0.281  0.00  0.00    +0.000 A 
ATOM      2  N   UNL     1       0.341  -4.769   0.094  0.00  0.00    +0.000 NA
ATOM      3  N   UNL     1       0.412  -3.435   0.035  0.00  0.00    +0.000 N 
ATOM      4  C   UNL     1      -0.821  -2.848   0.149  0.00  0.00    +0.000 A 
ATOM      5  N   UNL     1      -1.023  -1.484   0.061  0.00  0.00    +0.000 N 
ATOM      6  C   UNL     1      -2.284  -0.949   0.278  0.00  0.00    +0.000 C 
ATOM      7  O   UNL     1      -3.346  -1.448   0.612  0.00  0.00    +0.000 OA
ATOM      8  C   UNL     1      -2.177   0.510   0.040  0.00  0.00    +0.000 C 
ATOM      9  C   UNL     1      -0.921   0.792  -0.339  0.00  0.00    +0.000 C 
ATOM     10  C   UNL     1      -0.088  -0.464  -0.382  0.00  0.00    +0.000 C 
ATOM     11  N   UNL     1      -1.704  -3.803   0.340  0.00  0.00    +0.000 NA
ATOM     12  H   UNL     1       1.320  -3.001  -0.063  0.00  0.00    +0.000 HD
ATOM     13  H   UNL     1       0.158  -0.702  -1.425  0.00  0.00    +0.000 HD
ENDROOT
BRANCH  10  14
ATOM     14  C   UNL     1       1.178  -0.402   0.458  0.00  0.00    +0.000 A 
ATOM     15  C   UNL     1       1.129  -0.196   1.848  0.00  0.00    +0.000 A 
ATOM     16  C   UNL     1       2.305  -0.130   2.598  0.00  0.00    +0.000 A 
ATOM     17  C   UNL     1       3.539  -0.272   1.970  0.00  0.00    +0.000 A 
ATOM     18 CL   UNL     1       4.986  -0.186   2.896  0.00  0.00    +0.000 Cl
ATOM     19  C   UNL     1       3.610  -0.480   0.595  0.00  0.00    +0.000 A 
ATOM     20  C   UNL     1       2.435  -0.542  -0.158  0.00  0.00    +0.000 A 
ATOM     21  H   UNL     1       0.174  -0.072   2.358  0.00  0.00    +0.000 HD
ATOM     22  H   UNL     1       2.250   0.038   3.671  0.00  0.00    +0.000 HD
ATOM     23  H   UNL     1       4.575  -0.584   0.106  0.00  0.00    +0.000 HD
ATOM     24  H   UNL     1       2.516  -0.689  -1.234  0.00  0.00    +0.000 HD
ENDBRANCH  10  14
BRANCH   9  25
ATOM     25  C   UNL     1      -0.400   2.118  -0.722  0.00  0.00    +0.000 A 
ATOM     26  C   UNL     1      -0.913   3.288  -0.145  0.00  0.00    +0.000 A 
ATOM     27  C   UNL     1      -0.430   4.550  -0.505  0.00  0.00    +0.000 A 
ATOM     28  C   UNL     1       0.593   4.675  -1.444  0.00  0.00    +0.000 A 
ATOM     29  C   UNL     1       1.132   3.516  -2.010  0.00  0.00    +0.000 A 
ATOM     30  C   UNL     1       0.640   2.254  -1.653  0.00  0.00    +0.000 A 
ATOM     31  H   UNL     1      -1.705   3.242   0.599  0.00  0.00    +0.000 HD
ATOM     32  H   UNL     1      -0.870   5.433  -0.045  0.00  0.00    +0.000 HD
ATOM     33  H   UNL     1       1.934   3.589  -2.742  0.00  0.00    +0.000 HD
ATOM     34  H   UNL     1       1.083   1.390  -2.139  0.00  0.00    +0.000 HD
BRANCH  28  35
ATOM     35  C   UNL     1       1.100   6.023  -1.858  0.00  0.00    +0.000 C 
ATOM     36  H   UNL     1       0.595   6.826  -1.310  0.00  0.00    +0.000 HD
ATOM     37  H   UNL     1       0.918   6.180  -2.927  0.00  0.00    +0.000 HD
ATOM     38  H   UNL     1       2.173   6.102  -1.658  0.00  0.00    +0.000 HD
ENDBRANCH  28  35
ENDBRANCH   9  25
BRANCH   8  39
ATOM     39  O   UNL     1      -3.246   1.347   0.179  0.00  0.00    +0.000 OA
ATOM     40  H   UNL     1      -3.990   0.771   0.457  0.00  0.00    +0.000 HD
ENDBRANCH   8  39
BRANCH   1  41
ATOM     41  S   UNL     1      -1.623  -6.562   0.383  0.00  0.00    +0.000 S 
BRANCH  41  42
ATOM     42  C   UNL     1      -3.370  -6.211   0.646  0.00  0.00    +0.000 C 
ATOM     43  H   UNL     1      -3.917  -7.158   0.681  0.00  0.00    +0.000 HD
ATOM     44  H   UNL     1      -3.780  -5.611  -0.171  0.00  0.00    +0.000 HD
ATOM     45  H   UNL     1      -3.521  -5.693   1.596  0.00  0.00    +0.000 HD
ENDBRANCH  41  42
ENDBRANCH   1  41
TORSDOF 6
