REMARK  Name = 
REMARK  7 active torsions:
REMARK  status: ('A' for Active; 'I' for Inactive)
REMARK    1  A    between atoms: C_1  and  O_2
REMARK    2  A    between atoms: O_2  and  C_3
REMARK    3  A    between atoms: C_3  and  C_5
REMARK    4  A    between atoms: C_6  and  N_7
REMARK    5  A    between atoms: C_19  and  C_20
REMARK    6  A    between atoms: C_22  and  C_23
REMARK    7  A    between atoms: C_26  and  C_27
REMARK                            x       y       z     vdW  Elec       q    Type
REMARK                         _______ _______ _______ _____ _____    ______ ____
ROOT
ATOM      1  C   UNL     1       0.069  -0.913  -1.654  0.00  0.00    +0.000 C 
ATOM      2  C   UNL     1       1.436  -0.558  -1.649  0.00  0.00    +0.000 C 
ATOM      3  N   UNL     1       1.819   0.590  -0.863  0.00  0.00    +0.000 N 
ATOM      4  C   UNL     1       2.986   1.345  -0.980  0.00  0.00    +0.000 C 
ATOM      5  O   UNL     1       4.047   0.924  -1.450  0.00  0.00    +0.000 OA
ATOM      6  C   UNL     1       2.839   2.792  -0.622  0.00  0.00    +0.000 A 
ATOM      7  C   UNL     1       3.690   3.747  -1.196  0.00  0.00    +0.000 A 
ATOM      8  C   UNL     1       3.383   5.109  -1.115  0.00  0.00    +0.000 A 
ATOM      9  C   UNL     1       2.227   5.527  -0.461  0.00  0.00    +0.000 A 
ATOM     10  C   UNL     1       1.433   4.593   0.195  0.00  0.00    +0.000 A 
ATOM     11  C   UNL     1       1.756   3.227   0.148  0.00  0.00    +0.000 A 
ATOM     12  S   UNL     1       0.845   2.104   1.158  0.00  0.00    +0.000 S 
ATOM     13  C   UNL     1       1.176   0.594   0.380  0.00  0.00    +0.000 C 
ATOM     14  C   UNL     1       0.283  -0.373   0.549  0.00  0.00    +0.000 C 
ATOM     15  C   UNL     1      -0.806  -0.278  -0.499  0.00  0.00    +0.000 C 
ATOM     16  H   UNL     1       4.580   3.428  -1.742  0.00  0.00    +0.000 HD
ATOM     17  H   UNL     1       4.030   5.843  -1.590  0.00  0.00    +0.000 HD
ATOM     18  H   UNL     1       1.957   6.583  -0.441  0.00  0.00    +0.000 HD
ATOM     19  H   UNL     1       0.554   4.936   0.739  0.00  0.00    +0.000 HD
ATOM     20  H   UNL     1      -1.044   0.739  -0.844  0.00  0.00    +0.000 HD
ENDROOT
BRANCH  15  21
ATOM     21  C   UNL     1      -2.016  -0.690   0.449  0.00  0.00    +0.000 A 
ATOM     22  C   UNL     1      -2.510   0.354   1.286  0.00  0.00    +0.000 A 
ATOM     23  C   UNL     1      -3.119   0.113   2.540  0.00  0.00    +0.000 A 
ATOM     24  C   UNL     1      -3.287  -1.189   3.011  0.00  0.00    +0.000 A 
ATOM     25  C   UNL     1      -2.917  -2.233   2.156  0.00  0.00    +0.000 A 
ATOM     26  C   UNL     1      -2.300  -1.995   0.897  0.00  0.00    +0.000 A 
ATOM     27  H   UNL     1      -2.304   1.397   1.044  0.00  0.00    +0.000 HD
ATOM     28  H   UNL     1      -3.387   0.954   3.176  0.00  0.00    +0.000 HD
ATOM     29  H   UNL     1      -3.025  -3.264   2.505  0.00  0.00    +0.000 HD
ATOM     30  H   UNL     1      -1.942  -2.867   0.354  0.00  0.00    +0.000 HD
BRANCH  24  31
ATOM     31  C   UNL     1      -3.803  -1.457   4.406  0.00  0.00    +0.000 C 
ATOM     32  H   UNL     1      -3.961  -0.531   4.970  0.00  0.00    +0.000 HD
ATOM     33  H   UNL     1      -3.085  -2.054   4.978  0.00  0.00    +0.000 HD
ATOM     34  H   UNL     1      -4.761  -1.993   4.378  0.00  0.00    +0.000 HD
ENDBRANCH  24  31
ENDBRANCH  15  21
BRANCH   2  35
ATOM     35  N   UNL     1       2.481  -1.409  -2.009  0.00  0.00    +0.000 N 
ATOM     36  H   UNL     1       3.372  -0.980  -1.724  0.00  0.00    +0.000 HD
ATOM     37  H   UNL     1       2.413  -2.269  -1.466  0.00  0.00    +0.000 HD
ENDBRANCH   2  35
BRANCH   1  38
ATOM     38  C   UNL     1      -0.604  -2.062  -2.279  0.00  0.00    +0.000 C 
ATOM     39  O   UNL     1      -1.835  -2.157  -2.237  0.00  0.00    +0.000 OA
BRANCH  38  40
ATOM     40  O   UNL     1       0.209  -3.007  -2.784  0.00  0.00    +0.000 OA
BRANCH  40  41
ATOM     41  C   UNL     1      -0.493  -4.189  -3.183  0.00  0.00    +0.000 C 
ATOM     42  H   UNL     1       0.155  -4.784  -3.825  0.00  0.00    +0.000 HD
ATOM     43  H   UNL     1      -1.406  -3.952  -3.745  0.00  0.00    +0.000 HD
ATOM     44  H   UNL     1      -0.741  -4.782  -2.296  0.00  0.00    +0.000 HD
ENDBRANCH  40  41
ENDBRANCH  38  40
ENDBRANCH   1  38
BRANCH  14  45
ATOM     45  C   UNL     1       0.650  -1.845   0.631  0.00  0.00    +0.000 C 
ATOM     46  N   UNL     1       0.954  -3.067   0.700  0.00  0.00    +0.000 NA
ENDBRANCH  14  45
TORSDOF 7
