MODEL 1
REMARK VINA RESULT:    -9.036      0.000      0.000
REMARK INTER + INTRA:         -11.904
REMARK INTER:                 -11.677
REMARK INTRA:                  -0.227
REMARK UNBOUND:                -0.227
REMARK  Name = 
REMARK  6 active torsions:
REMARK  status: ('A' for Active; 'I' for Inactive)
REMARK    1  A    between atoms: C_1  and  C_2
REMARK    2  A    between atoms: C_2  and  N_3
REMARK    3  A    between atoms: N_20  and  C_21
REMARK    4  A    between atoms: C_21  and  C_22
REMARK    5  A    between atoms: C_22  and  C_23
REMARK    6  A    between atoms: C_23  and  O_24
REMARK                            x       y       z     vdW  Elec       q    Type
REMARK                         _______ _______ _______ _____ _____    ______ ____
ROOT
ATOM      1  N   UNL     1     -11.595  -1.627  16.535  0.00  0.00    +0.000 N 
ATOM      2  C   UNL     1     -12.218  -1.350  15.325  0.00  0.00    +0.000 A 
ATOM      3  C   UNL     1     -11.460  -1.944  14.363  0.00  0.00    +0.000 A 
ATOM      4  C   UNL     1     -11.289  -3.164  15.040  0.00  0.00    +0.000 A 
ATOM      5  C   UNL     1     -11.510  -4.452  14.580  0.00  0.00    +0.000 A 
ATOM      6  C   UNL     1     -11.326  -5.500  15.448  0.00  0.00    +0.000 A 
ATOM      7  C   UNL     1     -10.688  -5.319  16.678  0.00  0.00    +0.000 A 
ATOM      8  C   UNL     1     -10.505  -3.988  17.214  0.00  0.00    +0.000 A 
ATOM      9  C   UNL     1      -9.728  -3.954  18.385  0.00  0.00    +0.000 A 
ATOM     10  C   UNL     1      -9.144  -5.075  19.068  0.00  0.00    +0.000 A 
ATOM     11  C   UNL     1      -9.420  -6.381  18.517  0.00  0.00    +0.000 A 
ATOM     12  C   UNL     1      -8.929  -7.572  19.012  0.00  0.00    +0.000 A 
ATOM     13  C   UNL     1      -8.117  -8.040  20.071  0.00  0.00    +0.000 A 
ATOM     14  C   UNL     1      -7.871  -9.404  20.252  0.00  0.00    +0.000 A 
ATOM     15  C   UNL     1      -8.428 -10.333  19.394  0.00  0.00    +0.000 A 
ATOM     16  C   UNL     1      -9.230  -9.916  18.323  0.00  0.00    +0.000 A 
ATOM     17  C   UNL     1      -9.467  -8.533  18.130  0.00  0.00    +0.000 A 
ATOM     18  N   UNL     1     -10.202  -7.855  17.144  0.00  0.00    +0.000 N 
ATOM     19  C   UNL     1     -10.181  -6.468  17.368  0.00  0.00    +0.000 A 
ATOM     20  C   UNL     1      -8.333  -4.644  20.172  0.00  0.00    +0.000 C 
ATOM     21  O   UNL     1      -7.602  -5.192  20.993  0.00  0.00    +0.000 OA
ATOM     22  N   UNL     1      -8.503  -3.282  20.123  0.00  0.00    +0.000 N 
ATOM     23  C   UNL     1      -9.260  -2.787  19.107  0.00  0.00    +0.000 C 
ATOM     24  O   UNL     1      -9.373  -1.581  18.921  0.00  0.00    +0.000 OA
ATOM     25  C   UNL     1     -11.055  -2.916  16.418  0.00  0.00    +0.000 A 
ATOM     26  H   UNL     1     -13.221  -0.941  15.268  0.00  0.00    +0.000 HD
ATOM     27  H   UNL     1     -11.597  -1.849  13.290  0.00  0.00    +0.000 HD
ATOM     28  H   UNL     1     -11.945  -4.610  13.597  0.00  0.00    +0.000 HD
ATOM     29  H   UNL     1     -11.652  -6.436  15.050  0.00  0.00    +0.000 HD
ATOM     30  H   UNL     1      -7.654  -7.361  20.781  0.00  0.00    +0.000 HD
ATOM     31  H   UNL     1      -7.236  -9.733  21.079  0.00  0.00    +0.000 HD
ATOM     32  H   UNL     1      -8.233 -11.391  19.552  0.00  0.00    +0.000 HD
ATOM     33  H   UNL     1      -9.653 -10.669  17.665  0.00  0.00    +0.000 HD
ATOM     34  H   UNL     1      -7.997  -2.683  20.756  0.00  0.00    +0.000 HD
ENDROOT
BRANCH   1  35
ATOM     35  C   UNL     1     -11.864  -0.721  17.630  0.00  0.00    +0.000 C 
ATOM     36  H   UNL     1     -12.886  -0.902  17.970  0.00  0.00    +0.000 HD
ATOM     37  H   UNL     1     -11.240  -1.046  18.492  0.00  0.00    +0.000 HD
BRANCH  35  38
ATOM     38  C   UNL     1     -11.571   0.743  17.393  0.00  0.00    +0.000 C 
ATOM     39  H   UNL     1     -10.501   0.918  17.538  0.00  0.00    +0.000 HD
ATOM     40  H   UNL     1     -12.134   1.385  18.065  0.00  0.00    +0.000 HD
ATOM     41  H   UNL     1     -11.807   1.033  16.359  0.00  0.00    +0.000 HD
ENDBRANCH  35  38
ENDBRANCH   1  35
BRANCH  18  42
ATOM     42  C   UNL     1     -10.955  -8.546  16.100  0.00  0.00    +0.000 C 
ATOM     43  H   UNL     1     -11.281  -7.796  15.377  0.00  0.00    +0.000 HD
ATOM     44  H   UNL     1     -11.892  -8.898  16.531  0.00  0.00    +0.000 HD
BRANCH  42  45
ATOM     45  C   UNL     1     -10.194  -9.703  15.425  0.00  0.00    +0.000 C 
ATOM     46  H   UNL     1     -10.880 -10.233  14.752  0.00  0.00    +0.000 HD
ATOM     47  H   UNL     1      -9.837 -10.439  16.153  0.00  0.00    +0.000 HD
BRANCH  45  48
ATOM     48  C   UNL     1      -9.005  -9.192  14.617  0.00  0.00    +0.000 C 
ATOM     49  H   UNL     1      -8.117  -9.811  14.789  0.00  0.00    +0.000 HD
ATOM     50  H   UNL     1      -8.748  -8.162  14.889  0.00  0.00    +0.000 HD
BRANCH  48  51
ATOM     51  O   UNL     1      -9.309  -9.220  13.230  0.00  0.00    +0.000 OA
ATOM     52  H   UNL     1     -10.277  -9.209  13.140  0.00  0.00    +0.000 HD
ENDBRANCH  48  51
ENDBRANCH  45  48
ENDBRANCH  42  45
ENDBRANCH  18  42
TORSDOF 6
ENDMDL
MODEL 2
REMARK VINA RESULT:    -8.889      3.197      6.215
REMARK INTER + INTRA:         -11.713
REMARK INTER:                 -10.923
REMARK INTRA:                  -0.790
REMARK UNBOUND:                -0.227
REMARK  Name = 
REMARK  6 active torsions:
REMARK  status: ('A' for Active; 'I' for Inactive)
REMARK    1  A    between atoms: C_1  and  C_2
REMARK    2  A    between atoms: C_2  and  N_3
REMARK    3  A    between atoms: N_20  and  C_21
REMARK    4  A    between atoms: C_21  and  C_22
REMARK    5  A    between atoms: C_22  and  C_23
REMARK    6  A    between atoms: C_23  and  O_24
REMARK                            x       y       z     vdW  Elec       q    Type
REMARK                         _______ _______ _______ _____ _____    ______ ____
ROOT
ATOM      1  N   UNL     1      -9.305  -0.402  23.084  0.00  0.00    +0.000 N 
ATOM      2  C   UNL     1      -8.622  -0.412  24.293  0.00  0.00    +0.000 A 
ATOM      3  C   UNL     1      -8.762  -1.668  24.798  0.00  0.00    +0.000 A 
ATOM      4  C   UNL     1      -8.493  -2.344  23.594  0.00  0.00    +0.000 A 
ATOM      5  C   UNL     1      -7.591  -3.368  23.356  0.00  0.00    +0.000 A 
ATOM      6  C   UNL     1      -7.459  -3.841  22.073  0.00  0.00    +0.000 A 
ATOM      7  C   UNL     1      -8.374  -3.496  21.075  0.00  0.00    +0.000 A 
ATOM      8  C   UNL     1      -9.282  -2.387  21.271  0.00  0.00    +0.000 A 
ATOM      9  C   UNL     1     -10.233  -2.248  20.246  0.00  0.00    +0.000 A 
ATOM     10  C   UNL     1     -10.363  -3.065  19.071  0.00  0.00    +0.000 A 
ATOM     11  C   UNL     1      -9.384  -4.115  18.904  0.00  0.00    +0.000 A 
ATOM     12  C   UNL     1      -9.358  -5.017  17.861  0.00  0.00    +0.000 A 
ATOM     13  C   UNL     1     -10.077  -5.312  16.678  0.00  0.00    +0.000 A 
ATOM     14  C   UNL     1      -9.688  -6.352  15.829  0.00  0.00    +0.000 A 
ATOM     15  C   UNL     1      -8.577  -7.116  16.128  0.00  0.00    +0.000 A 
ATOM     16  C   UNL     1      -7.839  -6.869  17.294  0.00  0.00    +0.000 A 
ATOM     17  C   UNL     1      -8.243  -5.826  18.163  0.00  0.00    +0.000 A 
ATOM     18  N   UNL     1      -7.705  -5.387  19.384  0.00  0.00    +0.000 N 
ATOM     19  C   UNL     1      -8.427  -4.290  19.884  0.00  0.00    +0.000 A 
ATOM     20  C   UNL     1     -11.514  -2.686  18.301  0.00  0.00    +0.000 C 
ATOM     21  O   UNL     1     -12.070  -3.103  17.288  0.00  0.00    +0.000 OA
ATOM     22  N   UNL     1     -11.998  -1.629  19.032  0.00  0.00    +0.000 N 
ATOM     23  C   UNL     1     -11.349  -1.324  20.187  0.00  0.00    +0.000 C 
ATOM     24  O   UNL     1     -11.776  -0.472  20.957  0.00  0.00    +0.000 OA
ATOM     25  C   UNL     1      -9.131  -1.674  22.518  0.00  0.00    +0.000 A 
ATOM     26  H   UNL     1      -7.947   0.385  24.585  0.00  0.00    +0.000 HD
ATOM     27  H   UNL     1      -8.440  -2.004  25.778  0.00  0.00    +0.000 HD
ATOM     28  H   UNL     1      -6.917  -3.692  24.143  0.00  0.00    +0.000 HD
ATOM     29  H   UNL     1      -6.648  -4.527  21.961  0.00  0.00    +0.000 HD
ATOM     30  H   UNL     1     -10.957  -4.746  16.387  0.00  0.00    +0.000 HD
ATOM     31  H   UNL     1     -10.268  -6.556  14.925  0.00  0.00    +0.000 HD
ATOM     32  H   UNL     1      -8.282  -7.918  15.454  0.00  0.00    +0.000 HD
ATOM     33  H   UNL     1      -6.972  -7.488  17.503  0.00  0.00    +0.000 HD
ATOM     34  H   UNL     1     -12.858  -1.177  18.765  0.00  0.00    +0.000 HD
ENDROOT
BRANCH   1  35
ATOM     35  C   UNL     1      -9.758   0.885  22.601  0.00  0.00    +0.000 C 
ATOM     36  H   UNL     1      -9.021   1.251  21.884  0.00  0.00    +0.000 HD
ATOM     37  H   UNL     1     -10.663   0.706  21.978  0.00  0.00    +0.000 HD
BRANCH  35  38
ATOM     38  C   UNL     1     -10.130   1.914  23.644  0.00  0.00    +0.000 C 
ATOM     39  H   UNL     1     -10.757   2.679  23.178  0.00  0.00    +0.000 HD
ATOM     40  H   UNL     1      -9.254   2.384  24.082  0.00  0.00    +0.000 HD
ATOM     41  H   UNL     1     -10.721   1.463  24.453  0.00  0.00    +0.000 HD
ENDBRANCH  35  38
ENDBRANCH   1  35
BRANCH  18  42
ATOM     42  C   UNL     1      -6.495  -5.959  19.969  0.00  0.00    +0.000 C 
ATOM     43  H   UNL     1      -6.547  -7.042  19.840  0.00  0.00    +0.000 HD
ATOM     44  H   UNL     1      -6.549  -5.836  21.051  0.00  0.00    +0.000 HD
BRANCH  42  45
ATOM     45  C   UNL     1      -5.182  -5.376  19.416  0.00  0.00    +0.000 C 
ATOM     46  H   UNL     1      -5.411  -4.473  18.837  0.00  0.00    +0.000 HD
ATOM     47  H   UNL     1      -4.681  -6.069  18.732  0.00  0.00    +0.000 HD
BRANCH  45  48
ATOM     48  C   UNL     1      -4.216  -5.011  20.539  0.00  0.00    +0.000 C 
ATOM     49  H   UNL     1      -3.186  -5.278  20.276  0.00  0.00    +0.000 HD
ATOM     50  H   UNL     1      -4.466  -5.535  21.469  0.00  0.00    +0.000 HD
BRANCH  48  51
ATOM     51  O   UNL     1      -4.267  -3.614  20.792  0.00  0.00    +0.000 OA
ATOM     52  H   UNL     1      -3.552  -3.196  20.282  0.00  0.00    +0.000 HD
ENDBRANCH  48  51
ENDBRANCH  45  48
ENDBRANCH  42  45
ENDBRANCH  18  42
TORSDOF 6
ENDMDL
MODEL 3
REMARK VINA RESULT:    -8.687      2.829      5.223
REMARK INTER + INTRA:         -11.453
REMARK INTER:                 -10.560
REMARK INTRA:                  -0.893
REMARK UNBOUND:                -0.227
REMARK  Name = 
REMARK  6 active torsions:
REMARK  status: ('A' for Active; 'I' for Inactive)
REMARK    1  A    between atoms: C_1  and  C_2
REMARK    2  A    between atoms: C_2  and  N_3
REMARK    3  A    between atoms: N_20  and  C_21
REMARK    4  A    between atoms: C_21  and  C_22
REMARK    5  A    between atoms: C_22  and  C_23
REMARK    6  A    between atoms: C_23  and  O_24
REMARK                            x       y       z     vdW  Elec       q    Type
REMARK                         _______ _______ _______ _____ _____    ______ ____
ROOT
ATOM      1  N   UNL     1      -9.654  -0.265  22.922  0.00  0.00    +0.000 N 
ATOM      2  C   UNL     1     -10.489   0.844  22.934  0.00  0.00    +0.000 A 
ATOM      3  C   UNL     1     -10.423   1.383  21.686  0.00  0.00    +0.000 A 
ATOM      4  C   UNL     1     -10.535   0.166  20.991  0.00  0.00    +0.000 A 
ATOM      5  C   UNL     1     -11.402  -0.172  19.965  0.00  0.00    +0.000 A 
ATOM      6  C   UNL     1     -11.367  -1.453  19.471  0.00  0.00    +0.000 A 
ATOM      7  C   UNL     1     -10.327  -2.327  19.796  0.00  0.00    +0.000 A 
ATOM      8  C   UNL     1      -9.448  -2.032  20.907  0.00  0.00    +0.000 A 
ATOM      9  C   UNL     1      -8.370  -2.926  21.026  0.00  0.00    +0.000 A 
ATOM     10  C   UNL     1      -8.091  -4.060  20.188  0.00  0.00    +0.000 A 
ATOM     11  C   UNL     1      -9.045  -4.337  19.138  0.00  0.00    +0.000 A 
ATOM     12  C   UNL     1      -8.938  -5.359  18.218  0.00  0.00    +0.000 A 
ATOM     13  C   UNL     1      -8.071  -6.432  17.902  0.00  0.00    +0.000 A 
ATOM     14  C   UNL     1      -8.351  -7.308  16.849  0.00  0.00    +0.000 A 
ATOM     15  C   UNL     1      -9.495  -7.145  16.092  0.00  0.00    +0.000 A 
ATOM     16  C   UNL     1     -10.378  -6.090  16.361  0.00  0.00    +0.000 A 
ATOM     17  C   UNL     1     -10.087  -5.193  17.418  0.00  0.00    +0.000 A 
ATOM     18  N   UNL     1     -10.778  -4.061  17.879  0.00  0.00    +0.000 N 
ATOM     19  C   UNL     1     -10.122  -3.488  18.982  0.00  0.00    +0.000 A 
ATOM     20  C   UNL     1      -6.847  -4.679  20.552  0.00  0.00    +0.000 C 
ATOM     21  O   UNL     1      -6.165  -5.603  20.116  0.00  0.00    +0.000 OA
ATOM     22  N   UNL     1      -6.458  -3.908  21.619  0.00  0.00    +0.000 N 
ATOM     23  C   UNL     1      -7.252  -2.853  21.945  0.00  0.00    +0.000 C 
ATOM     24  O   UNL     1      -6.925  -2.048  22.809  0.00  0.00    +0.000 OA
ATOM     25  C   UNL     1      -9.758  -0.828  21.641  0.00  0.00    +0.000 A 
ATOM     26  H   UNL     1     -11.193   1.032  23.738  0.00  0.00    +0.000 HD
ATOM     27  H   UNL     1     -10.872   2.318  21.368  0.00  0.00    +0.000 HD
ATOM     28  H   UNL     1     -12.176   0.526  19.657  0.00  0.00    +0.000 HD
ATOM     29  H   UNL     1     -12.160  -1.659  18.785  0.00  0.00    +0.000 HD
ATOM     30  H   UNL     1      -7.159  -6.615  18.461  0.00  0.00    +0.000 HD
ATOM     31  H   UNL     1      -7.659  -8.125  16.628  0.00  0.00    +0.000 HD
ATOM     32  H   UNL     1      -9.703  -7.839  15.281  0.00  0.00    +0.000 HD
ATOM     33  H   UNL     1     -11.269  -5.987  15.749  0.00  0.00    +0.000 HD
ATOM     34  H   UNL     1      -5.568  -4.067  22.064  0.00  0.00    +0.000 HD
ENDROOT
BRANCH   1  35
ATOM     35  C   UNL     1      -9.135  -0.706  24.199  0.00  0.00    +0.000 C 
ATOM     36  H   UNL     1      -8.048  -0.762  24.116  0.00  0.00    +0.000 HD
ATOM     37  H   UNL     1      -9.299   0.119  24.927  0.00  0.00    +0.000 HD
BRANCH  35  38
ATOM     38  C   UNL     1      -9.748  -1.954  24.792  0.00  0.00    +0.000 C 
ATOM     39  H   UNL     1      -8.999  -2.751  24.793  0.00  0.00    +0.000 HD
ATOM     40  H   UNL     1     -10.621  -2.282  24.235  0.00  0.00    +0.000 HD
ATOM     41  H   UNL     1     -10.045  -1.791  25.838  0.00  0.00    +0.000 HD
ENDBRANCH  35  38
ENDBRANCH   1  35
BRANCH  18  42
ATOM     42  C   UNL     1     -12.057  -3.630  17.320  0.00  0.00    +0.000 C 
ATOM     43  H   UNL     1     -12.523  -2.957  18.043  0.00  0.00    +0.000 HD
ATOM     44  H   UNL     1     -12.731  -4.487  17.310  0.00  0.00    +0.000 HD
BRANCH  42  45
ATOM     45  C   UNL     1     -11.959  -2.992  15.922  0.00  0.00    +0.000 C 
ATOM     46  H   UNL     1     -12.903  -2.478  15.700  0.00  0.00    +0.000 HD
ATOM     47  H   UNL     1     -11.819  -3.743  15.138  0.00  0.00    +0.000 HD
BRANCH  45  48
ATOM     48  C   UNL     1     -10.817  -1.983  15.847  0.00  0.00    +0.000 C 
ATOM     49  H   UNL     1     -10.424  -1.758  16.844  0.00  0.00    +0.000 HD
ATOM     50  H   UNL     1     -11.147  -1.038  15.399  0.00  0.00    +0.000 HD
BRANCH  48  51
ATOM     51  O   UNL     1      -9.759  -2.502  15.054  0.00  0.00    +0.000 OA
ATOM     52  H   UNL     1      -9.052  -2.789  15.657  0.00  0.00    +0.000 HD
ENDBRANCH  48  51
ENDBRANCH  45  48
ENDBRANCH  42  45
ENDBRANCH  18  42
TORSDOF 6
ENDMDL
MODEL 4
REMARK VINA RESULT:    -8.426      3.456      8.503
REMARK INTER + INTRA:         -11.116
REMARK INTER:                 -10.241
REMARK INTRA:                  -0.875
REMARK UNBOUND:                -0.227
REMARK  Name = 
REMARK  6 active torsions:
REMARK  status: ('A' for Active; 'I' for Inactive)
REMARK    1  A    between atoms: C_1  and  C_2
REMARK    2  A    between atoms: C_2  and  N_3
REMARK    3  A    between atoms: N_20  and  C_21
REMARK    4  A    between atoms: C_21  and  C_22
REMARK    5  A    between atoms: C_22  and  C_23
REMARK    6  A    between atoms: C_23  and  O_24
REMARK                            x       y       z     vdW  Elec       q    Type
REMARK                         _______ _______ _______ _____ _____    ______ ____
ROOT
ATOM      1  N   UNL     1      -8.205  -5.682  19.086  0.00  0.00    +0.000 N 
ATOM      2  C   UNL     1      -7.157  -6.475  19.535  0.00  0.00    +0.000 A 
ATOM      3  C   UNL     1      -6.103  -5.636  19.729  0.00  0.00    +0.000 A 
ATOM      4  C   UNL     1      -6.832  -4.630  20.388  0.00  0.00    +0.000 A 
ATOM      5  C   UNL     1      -6.559  -4.012  21.598  0.00  0.00    +0.000 A 
ATOM      6  C   UNL     1      -7.453  -3.085  22.076  0.00  0.00    +0.000 A 
ATOM      7  C   UNL     1      -8.474  -2.577  21.269  0.00  0.00    +0.000 A 
ATOM      8  C   UNL     1      -8.824  -3.244  20.033  0.00  0.00    +0.000 A 
ATOM      9  C   UNL     1      -9.769  -2.544  19.263  0.00  0.00    +0.000 A 
ATOM     10  C   UNL     1     -10.395  -1.292  19.591  0.00  0.00    +0.000 A 
ATOM     11  C   UNL     1     -10.050  -0.714  20.869  0.00  0.00    +0.000 A 
ATOM     12  C   UNL     1     -10.523   0.490  21.349  0.00  0.00    +0.000 A 
ATOM     13  C   UNL     1     -11.398   1.531  20.960  0.00  0.00    +0.000 A 
ATOM     14  C   UNL     1     -11.643   2.627  21.793  0.00  0.00    +0.000 A 
ATOM     15  C   UNL     1     -11.032   2.712  23.029  0.00  0.00    +0.000 A 
ATOM     16  C   UNL     1     -10.148   1.711  23.453  0.00  0.00    +0.000 A 
ATOM     17  C   UNL     1      -9.888   0.608  22.603  0.00  0.00    +0.000 A 
ATOM     18  N   UNL     1      -9.046  -0.503  22.770  0.00  0.00    +0.000 N 
ATOM     19  C   UNL     1      -9.128  -1.365  21.663  0.00  0.00    +0.000 A 
ATOM     20  C   UNL     1     -11.230  -0.834  18.516  0.00  0.00    +0.000 C 
ATOM     21  O   UNL     1     -11.901   0.170  18.291  0.00  0.00    +0.000 OA
ATOM     22  N   UNL     1     -11.095  -1.856  17.608  0.00  0.00    +0.000 N 
ATOM     23  C   UNL     1     -10.247  -2.867  17.933  0.00  0.00    +0.000 C 
ATOM     24  O   UNL     1      -9.980  -3.761  17.138  0.00  0.00    +0.000 OA
ATOM     25  C   UNL     1      -8.085  -4.451  19.747  0.00  0.00    +0.000 A 
ATOM     26  H   UNL     1      -7.303  -7.499  19.862  0.00  0.00    +0.000 HD
ATOM     27  H   UNL     1      -5.089  -5.930  19.983  0.00  0.00    +0.000 HD
ATOM     28  H   UNL     1      -5.727  -4.353  22.207  0.00  0.00    +0.000 HD
ATOM     29  H   UNL     1      -7.233  -2.767  23.072  0.00  0.00    +0.000 HD
ATOM     30  H   UNL     1     -11.911   1.520  20.003  0.00  0.00    +0.000 HD
ATOM     31  H   UNL     1     -12.322   3.416  21.460  0.00  0.00    +0.000 HD
ATOM     32  H   UNL     1     -11.237   3.568  23.669  0.00  0.00    +0.000 HD
ATOM     33  H   UNL     1      -9.682   1.806  24.429  0.00  0.00    +0.000 HD
ATOM     34  H   UNL     1     -11.531  -1.791  16.702  0.00  0.00    +0.000 HD
ENDROOT
BRANCH   1  35
ATOM     35  C   UNL     1      -9.244  -6.342  18.324  0.00  0.00    +0.000 C 
ATOM     36  H   UNL     1      -9.832  -6.948  19.017  0.00  0.00    +0.000 HD
ATOM     37  H   UNL     1      -9.959  -5.559  17.989  0.00  0.00    +0.000 HD
BRANCH  35  38
ATOM     38  C   UNL     1      -8.808  -7.106  17.095  0.00  0.00    +0.000 C 
ATOM     39  H   UNL     1      -9.551  -7.880  16.877  0.00  0.00    +0.000 HD
ATOM     40  H   UNL     1      -7.835  -7.570  17.227  0.00  0.00    +0.000 HD
ATOM     41  H   UNL     1      -8.762  -6.449  16.215  0.00  0.00    +0.000 HD
ENDBRANCH  35  38
ENDBRANCH   1  35
BRANCH  18  42
ATOM     42  C   UNL     1      -8.280  -0.742  23.991  0.00  0.00    +0.000 C 
ATOM     43  H   UNL     1      -7.766   0.188  24.245  0.00  0.00    +0.000 HD
ATOM     44  H   UNL     1      -7.460  -1.419  23.753  0.00  0.00    +0.000 HD
BRANCH  42  45
ATOM     45  C   UNL     1      -9.111  -1.280  25.171  0.00  0.00    +0.000 C 
ATOM     46  H   UNL     1     -10.118  -0.847  25.121  0.00  0.00    +0.000 HD
ATOM     47  H   UNL     1      -8.690  -0.986  26.137  0.00  0.00    +0.000 HD
BRANCH  45  48
ATOM     48  C   UNL     1      -9.224  -2.801  25.125  0.00  0.00    +0.000 C 
ATOM     49  H   UNL     1      -9.254  -3.224  26.136  0.00  0.00    +0.000 HD
ATOM     50  H   UNL     1      -8.371  -3.251  24.603  0.00  0.00    +0.000 HD
BRANCH  48  51
ATOM     51  O   UNL     1     -10.411  -3.182  24.445  0.00  0.00    +0.000 OA
ATOM     52  H   UNL     1     -10.760  -3.977  24.883  0.00  0.00    +0.000 HD
ENDBRANCH  48  51
ENDBRANCH  45  48
ENDBRANCH  42  45
ENDBRANCH  18  42
TORSDOF 6
ENDMDL
MODEL 5
REMARK VINA RESULT:    -8.320      2.205      7.918
REMARK INTER + INTRA:         -10.979
REMARK INTER:                 -10.197
REMARK INTRA:                  -0.782
REMARK UNBOUND:                -0.227
REMARK  Name = 
REMARK  6 active torsions:
REMARK  status: ('A' for Active; 'I' for Inactive)
REMARK    1  A    between atoms: C_1  and  C_2
REMARK    2  A    between atoms: C_2  and  N_3
REMARK    3  A    between atoms: N_20  and  C_21
REMARK    4  A    between atoms: C_21  and  C_22
REMARK    5  A    between atoms: C_22  and  C_23
REMARK    6  A    between atoms: C_23  and  O_24
REMARK                            x       y       z     vdW  Elec       q    Type
REMARK                         _______ _______ _______ _____ _____    ______ ____
ROOT
ATOM      1  N   UNL     1      -8.759  -7.055  18.828  0.00  0.00    +0.000 N 
ATOM      2  C   UNL     1      -7.913  -7.262  19.909  0.00  0.00    +0.000 A 
ATOM      3  C   UNL     1      -7.012  -6.242  19.887  0.00  0.00    +0.000 A 
ATOM      4  C   UNL     1      -7.948  -5.221  19.646  0.00  0.00    +0.000 A 
ATOM      5  C   UNL     1      -8.127  -4.028  20.328  0.00  0.00    +0.000 A 
ATOM      6  C   UNL     1      -9.154  -3.200  19.943  0.00  0.00    +0.000 A 
ATOM      7  C   UNL     1      -9.844  -3.409  18.746  0.00  0.00    +0.000 A 
ATOM      8  C   UNL     1      -9.727  -4.671  18.049  0.00  0.00    +0.000 A 
ATOM      9  C   UNL     1     -10.363  -4.684  16.795  0.00  0.00    +0.000 A 
ATOM     10  C   UNL     1     -11.095  -3.607  16.186  0.00  0.00    +0.000 A 
ATOM     11  C   UNL     1     -11.229  -2.397  16.964  0.00  0.00    +0.000 A 
ATOM     12  C   UNL     1     -11.868  -1.250  16.543  0.00  0.00    +0.000 A 
ATOM     13  C   UNL     1     -12.580  -0.769  15.418  0.00  0.00    +0.000 A 
ATOM     14  C   UNL     1     -13.124   0.519  15.397  0.00  0.00    +0.000 A 
ATOM     15  C   UNL     1     -12.983   1.353  16.489  0.00  0.00    +0.000 A 
ATOM     16  C   UNL     1     -12.276   0.925  17.621  0.00  0.00    +0.000 A 
ATOM     17  C   UNL     1     -11.710  -0.374  17.637  0.00  0.00    +0.000 A 
ATOM     18  N   UNL     1     -10.952  -1.034  18.617  0.00  0.00    +0.000 N 
ATOM     19  C   UNL     1     -10.624  -2.336  18.203  0.00  0.00    +0.000 A 
ATOM     20  C   UNL     1     -11.516  -3.954  14.858  0.00  0.00    +0.000 C 
ATOM     21  O   UNL     1     -12.092  -3.377  13.939  0.00  0.00    +0.000 OA
ATOM     22  N   UNL     1     -11.050  -5.241  14.749  0.00  0.00    +0.000 N 
ATOM     23  C   UNL     1     -10.342  -5.736  15.799  0.00  0.00    +0.000 C 
ATOM     24  O   UNL     1      -9.795  -6.831  15.744  0.00  0.00    +0.000 OA
ATOM     25  C   UNL     1      -8.905  -5.666  18.697  0.00  0.00    +0.000 A 
ATOM     26  H   UNL     1      -8.137  -7.976  20.693  0.00  0.00    +0.000 HD
ATOM     27  H   UNL     1      -6.142  -6.141  20.529  0.00  0.00    +0.000 HD
ATOM     28  H   UNL     1      -7.550  -3.823  21.225  0.00  0.00    +0.000 HD
ATOM     29  H   UNL     1      -9.301  -2.378  20.609  0.00  0.00    +0.000 HD
ATOM     30  H   UNL     1     -12.728  -1.377  14.531  0.00  0.00    +0.000 HD
ATOM     31  H   UNL     1     -13.665   0.861  14.511  0.00  0.00    +0.000 HD
ATOM     32  H   UNL     1     -13.418   2.350  16.460  0.00  0.00    +0.000 HD
ATOM     33  H   UNL     1     -12.180   1.604  18.463  0.00  0.00    +0.000 HD
ATOM     34  H   UNL     1     -11.146  -5.745  13.881  0.00  0.00    +0.000 HD
ENDROOT
BRANCH   1  35
ATOM     35  C   UNL     1      -9.452  -8.214  18.310  0.00  0.00    +0.000 C 
ATOM     36  H   UNL     1     -10.508  -8.116  18.570  0.00  0.00    +0.000 HD
ATOM     37  H   UNL     1      -9.448  -8.136  17.200  0.00  0.00    +0.000 HD
BRANCH  35  38
ATOM     38  C   UNL     1      -8.879  -9.567  18.664  0.00  0.00    +0.000 C 
ATOM     39  H   UNL     1      -9.563 -10.071  19.355  0.00  0.00    +0.000 HD
ATOM     40  H   UNL     1      -7.899  -9.486  19.125  0.00  0.00    +0.000 HD
ATOM     41  H   UNL     1      -8.793 -10.207  17.775  0.00  0.00    +0.000 HD
ENDBRANCH  35  38
ENDBRANCH   1  35
BRANCH  18  42
ATOM     42  C   UNL     1     -10.651  -0.443  19.919  0.00  0.00    +0.000 C 
ATOM     43  H   UNL     1     -10.425   0.613  19.757  0.00  0.00    +0.000 HD
ATOM     44  H   UNL     1      -9.701  -0.850  20.266  0.00  0.00    +0.000 HD
BRANCH  42  45
ATOM     45  C   UNL     1     -11.751  -0.640  20.978  0.00  0.00    +0.000 C 
ATOM     46  H   UNL     1     -12.508  -1.327  20.578  0.00  0.00    +0.000 HD
ATOM     47  H   UNL     1     -12.269   0.296  21.211  0.00  0.00    +0.000 HD
BRANCH  45  48
ATOM     48  C   UNL     1     -11.186  -1.225  22.268  0.00  0.00    +0.000 C 
ATOM     49  H   UNL     1     -11.388  -0.567  23.121  0.00  0.00    +0.000 HD
ATOM     50  H   UNL     1     -10.100  -1.359  22.205  0.00  0.00    +0.000 HD
BRANCH  48  51
ATOM     51  O   UNL     1     -11.774  -2.491  22.530  0.00  0.00    +0.000 OA
ATOM     52  H   UNL     1     -11.054  -3.116  22.723  0.00  0.00    +0.000 HD
ENDBRANCH  48  51
ENDBRANCH  45  48
ENDBRANCH  42  45
ENDBRANCH  18  42
TORSDOF 6
ENDMDL
MODEL 6
REMARK VINA RESULT:    -8.266      2.099      3.768
REMARK INTER + INTRA:         -10.909
REMARK INTER:                 -10.009
REMARK INTRA:                  -0.899
REMARK UNBOUND:                -0.227
REMARK  Name = 
REMARK  6 active torsions:
REMARK  status: ('A' for Active; 'I' for Inactive)
REMARK    1  A    between atoms: C_1  and  C_2
REMARK    2  A    between atoms: C_2  and  N_3
REMARK    3  A    between atoms: N_20  and  C_21
REMARK    4  A    between atoms: C_21  and  C_22
REMARK    5  A    between atoms: C_22  and  C_23
REMARK    6  A    between atoms: C_23  and  O_24
REMARK                            x       y       z     vdW  Elec       q    Type
REMARK                         _______ _______ _______ _____ _____    ______ ____
ROOT
ATOM      1  N   UNL     1      -9.930  -0.166  20.699  0.00  0.00    +0.000 N 
ATOM      2  C   UNL     1     -10.509   1.008  20.234  0.00  0.00    +0.000 A 
ATOM      3  C   UNL     1     -10.090   1.154  18.947  0.00  0.00    +0.000 A 
ATOM      4  C   UNL     1     -10.308  -0.182  18.566  0.00  0.00    +0.000 A 
ATOM      5  C   UNL     1     -11.008  -0.671  17.475  0.00  0.00    +0.000 A 
ATOM      6  C   UNL     1     -11.137  -2.031  17.334  0.00  0.00    +0.000 A 
ATOM      7  C   UNL     1     -10.381  -2.915  18.107  0.00  0.00    +0.000 A 
ATOM      8  C   UNL     1      -9.696  -2.444  19.291  0.00  0.00    +0.000 A 
ATOM      9  C   UNL     1      -8.866  -3.411  19.885  0.00  0.00    +0.000 A 
ATOM     10  C   UNL     1      -8.664  -4.765  19.445  0.00  0.00    +0.000 A 
ATOM     11  C   UNL     1      -9.429  -5.190  18.296  0.00  0.00    +0.000 A 
ATOM     12  C   UNL     1      -9.353  -6.437  17.710  0.00  0.00    +0.000 A 
ATOM     13  C   UNL     1      -8.677  -7.667  17.887  0.00  0.00    +0.000 A 
ATOM     14  C   UNL     1      -8.917  -8.758  17.046  0.00  0.00    +0.000 A 
ATOM     15  C   UNL     1      -9.833  -8.656  16.017  0.00  0.00    +0.000 A 
ATOM     16  C   UNL     1     -10.519  -7.454  15.795  0.00  0.00    +0.000 A 
ATOM     17  C   UNL     1     -10.265  -6.343  16.637  0.00  0.00    +0.000 A 
ATOM     18  N   UNL     1     -10.789  -5.041  16.624  0.00  0.00    +0.000 N 
ATOM     19  C   UNL     1     -10.260  -4.277  17.679  0.00  0.00    +0.000 A 
ATOM     20  C   UNL     1      -7.667  -5.424  20.242  0.00  0.00    +0.000 C 
ATOM     21  O   UNL     1      -7.115  -6.521  20.226  0.00  0.00    +0.000 OA
ATOM     22  N   UNL     1      -7.347  -4.444  21.149  0.00  0.00    +0.000 N 
ATOM     23  C   UNL     1      -7.959  -3.239  21.002  0.00  0.00    +0.000 C 
ATOM     24  O   UNL     1      -7.652  -2.276  21.695  0.00  0.00    +0.000 OA
ATOM     25  C   UNL     1      -9.892  -1.049  19.610  0.00  0.00    +0.000 A 
ATOM     26  H   UNL     1     -11.303   1.515  20.770  0.00  0.00    +0.000 HD
ATOM     27  H   UNL     1     -10.269   2.013  18.309  0.00  0.00    +0.000 HD
ATOM     28  H   UNL     1     -11.548   0.012  16.826  0.00  0.00    +0.000 HD
ATOM     29  H   UNL     1     -11.805  -2.309  16.548  0.00  0.00    +0.000 HD
ATOM     30  H   UNL     1      -7.949  -7.811  18.679  0.00  0.00    +0.000 HD
ATOM     31  H   UNL     1      -8.375  -9.693  17.208  0.00  0.00    +0.000 HD
ATOM     32  H   UNL     1     -10.014  -9.515  15.375  0.00  0.00    +0.000 HD
ATOM     33  H   UNL     1     -11.232  -7.404  14.978  0.00  0.00    +0.000 HD
ATOM     34  H   UNL     1      -6.613  -4.596  21.823  0.00  0.00    +0.000 HD
ENDROOT
BRANCH   1  35
ATOM     35  C   UNL     1      -9.772  -0.293  22.131  0.00  0.00    +0.000 C 
ATOM     36  H   UNL     1      -8.748  -0.618  22.327  0.00  0.00    +0.000 HD
ATOM     37  H   UNL     1      -9.808   0.731  22.562  0.00  0.00    +0.000 HD
BRANCH  35  38
ATOM     38  C   UNL     1     -10.804  -1.122  22.861  0.00  0.00    +0.000 C 
ATOM     39  H   UNL     1     -11.685  -0.502  23.052  0.00  0.00    +0.000 HD
ATOM     40  H   UNL     1     -10.425  -1.507  23.803  0.00  0.00    +0.000 HD
ATOM     41  H   UNL     1     -11.136  -1.972  22.248  0.00  0.00    +0.000 HD
ENDBRANCH  35  38
ENDBRANCH   1  35
BRANCH  18  42
ATOM     42  C   UNL     1     -11.818  -4.609  15.682  0.00  0.00    +0.000 C 
ATOM     43  H   UNL     1     -12.267  -3.696  16.078  0.00  0.00    +0.000 HD
ATOM     44  H   UNL     1     -12.639  -5.326  15.722  0.00  0.00    +0.000 HD
BRANCH  42  45
ATOM     45  C   UNL     1     -11.323  -4.426  14.236  0.00  0.00    +0.000 C 
ATOM     46  H   UNL     1     -12.089  -3.887  13.665  0.00  0.00    +0.000 HD
ATOM     47  H   UNL     1     -11.170  -5.384  13.729  0.00  0.00    +0.000 HD
BRANCH  45  48
ATOM     48  C   UNL     1     -10.021  -3.631  14.188  0.00  0.00    +0.000 C 
ATOM     49  H   UNL     1      -9.784  -3.205  15.170  0.00  0.00    +0.000 HD
ATOM     50  H   UNL     1     -10.084  -2.801  13.474  0.00  0.00    +0.000 HD
BRANCH  48  51
ATOM     51  O   UNL     1      -8.948  -4.474  13.794  0.00  0.00    +0.000 OA
ATOM     52  H   UNL     1      -9.246  -4.990  13.026  0.00  0.00    +0.000 HD
ENDBRANCH  48  51
ENDBRANCH  45  48
ENDBRANCH  42  45
ENDBRANCH  18  42
TORSDOF 6
ENDMDL
MODEL 7
REMARK VINA RESULT:    -8.174      2.197      5.163
REMARK INTER + INTRA:         -10.789
REMARK INTER:                  -9.936
REMARK INTRA:                  -0.854
REMARK UNBOUND:                -0.227
REMARK  Name = 
REMARK  6 active torsions:
REMARK  status: ('A' for Active; 'I' for Inactive)
REMARK    1  A    between atoms: C_1  and  C_2
REMARK    2  A    between atoms: C_2  and  N_3
REMARK    3  A    between atoms: N_20  and  C_21
REMARK    4  A    between atoms: C_21  and  C_22
REMARK    5  A    between atoms: C_22  and  C_23
REMARK    6  A    between atoms: C_23  and  O_24
REMARK                            x       y       z     vdW  Elec       q    Type
REMARK                         _______ _______ _______ _____ _____    ______ ____
ROOT
ATOM      1  N   UNL     1     -10.485   0.894  18.424  0.00  0.00    +0.000 N 
ATOM      2  C   UNL     1     -10.201   1.732  19.495  0.00  0.00    +0.000 A 
ATOM      3  C   UNL     1     -10.676   1.105  20.605  0.00  0.00    +0.000 A 
ATOM      4  C   UNL     1     -10.170  -0.168  20.286  0.00  0.00    +0.000 A 
ATOM      5  C   UNL     1      -9.408  -1.020  21.068  0.00  0.00    +0.000 A 
ATOM      6  C   UNL     1      -8.976  -2.203  20.519  0.00  0.00    +0.000 A 
ATOM      7  C   UNL     1      -9.490  -2.671  19.307  0.00  0.00    +0.000 A 
ATOM      8  C   UNL     1     -10.232  -1.782  18.440  0.00  0.00    +0.000 A 
ATOM      9  C   UNL     1     -10.803  -2.426  17.328  0.00  0.00    +0.000 A 
ATOM     10  C   UNL     1     -10.703  -3.820  16.991  0.00  0.00    +0.000 A 
ATOM     11  C   UNL     1      -9.893  -4.638  17.864  0.00  0.00    +0.000 A 
ATOM     12  C   UNL     1      -9.699  -5.996  17.723  0.00  0.00    +0.000 A 
ATOM     13  C   UNL     1     -10.072  -7.050  16.855  0.00  0.00    +0.000 A 
ATOM     14  C   UNL     1      -9.613  -8.356  17.055  0.00  0.00    +0.000 A 
ATOM     15  C   UNL     1      -8.772  -8.644  18.112  0.00  0.00    +0.000 A 
ATOM     16  C   UNL     1      -8.385  -7.636  19.005  0.00  0.00    +0.000 A 
ATOM     17  C   UNL     1      -8.862  -6.316  18.812  0.00  0.00    +0.000 A 
ATOM     18  N   UNL     1      -8.649  -5.144  19.555  0.00  0.00    +0.000 N 
ATOM     19  C   UNL     1      -9.309  -4.051  18.968  0.00  0.00    +0.000 A 
ATOM     20  C   UNL     1     -11.501  -4.132  15.838  0.00  0.00    +0.000 C 
ATOM     21  O   UNL     1     -11.790  -5.153  15.220  0.00  0.00    +0.000 OA
ATOM     22  N   UNL     1     -12.011  -2.898  15.515  0.00  0.00    +0.000 N 
ATOM     23  C   UNL     1     -11.695  -1.861  16.335  0.00  0.00    +0.000 C 
ATOM     24  O   UNL     1     -12.194  -0.752  16.188  0.00  0.00    +0.000 OA
ATOM     25  C   UNL     1     -10.350  -0.419  18.901  0.00  0.00    +0.000 A 
ATOM     26  H   UNL     1      -9.529   2.578  19.406  0.00  0.00    +0.000 HD
ATOM     27  H   UNL     1     -10.715   1.519  21.608  0.00  0.00    +0.000 HD
ATOM     28  H   UNL     1      -9.055  -0.694  22.042  0.00  0.00    +0.000 HD
ATOM     29  H   UNL     1      -8.284  -2.726  21.143  0.00  0.00    +0.000 HD
ATOM     30  H   UNL     1     -10.727  -6.886  16.004  0.00  0.00    +0.000 HD
ATOM     31  H   UNL     1      -9.923  -9.147  16.368  0.00  0.00    +0.000 HD
ATOM     32  H   UNL     1      -8.418  -9.663  18.251  0.00  0.00    +0.000 HD
ATOM     33  H   UNL     1      -7.724  -7.893  19.827  0.00  0.00    +0.000 HD
ATOM     34  H   UNL     1     -12.673  -2.804  14.761  0.00  0.00    +0.000 HD
ENDROOT
BRANCH   1  35
ATOM     35  C   UNL     1     -10.571   1.509  17.118  0.00  0.00    +0.000 C 
ATOM     36  H   UNL     1     -11.446   1.098  16.612  0.00  0.00    +0.000 HD
ATOM     37  H   UNL     1     -10.835   2.579  17.271  0.00  0.00    +0.000 HD
BRANCH  35  38
ATOM     38  C   UNL     1      -9.324   1.475  16.263  0.00  0.00    +0.000 C 
ATOM     39  H   UNL     1      -9.125   0.440  15.970  0.00  0.00    +0.000 HD
ATOM     40  H   UNL     1      -8.460   1.872  16.788  0.00  0.00    +0.000 HD
ATOM     41  H   UNL     1      -9.462   2.050  15.337  0.00  0.00    +0.000 HD
ENDBRANCH  35  38
ENDBRANCH   1  35
BRANCH  18  42
ATOM     42  C   UNL     1      -7.770  -5.092  20.722  0.00  0.00    +0.000 C 
ATOM     43  H   UNL     1      -7.879  -6.037  21.258  0.00  0.00    +0.000 HD
ATOM     44  H   UNL     1      -8.176  -4.362  21.422  0.00  0.00    +0.000 HD
BRANCH  42  45
ATOM     45  C   UNL     1      -6.297  -4.781  20.397  0.00  0.00    +0.000 C 
ATOM     46  H   UNL     1      -6.249  -4.274  19.426  0.00  0.00    +0.000 HD
ATOM     47  H   UNL     1      -5.696  -5.692  20.306  0.00  0.00    +0.000 HD
BRANCH  45  48
ATOM     48  C   UNL     1      -5.670  -3.881  21.458  0.00  0.00    +0.000 C 
ATOM     49  H   UNL     1      -5.600  -4.397  22.422  0.00  0.00    +0.000 HD
ATOM     50  H   UNL     1      -6.262  -2.971  21.612  0.00  0.00    +0.000 HD
BRANCH  48  51
ATOM     51  O   UNL     1      -4.363  -3.495  21.060  0.00  0.00    +0.000 OA
ATOM     52  H   UNL     1      -3.874  -3.240  21.860  0.00  0.00    +0.000 HD
ENDBRANCH  48  51
ENDBRANCH  45  48
ENDBRANCH  42  45
ENDBRANCH  18  42
TORSDOF 6
ENDMDL
MODEL 8
REMARK VINA RESULT:    -8.150      2.305      6.555
REMARK INTER + INTRA:         -10.758
REMARK INTER:                 -10.061
REMARK INTRA:                  -0.698
REMARK UNBOUND:                -0.227
REMARK  Name = 
REMARK  6 active torsions:
REMARK  status: ('A' for Active; 'I' for Inactive)
REMARK    1  A    between atoms: C_1  and  C_2
REMARK    2  A    between atoms: C_2  and  N_3
REMARK    3  A    between atoms: N_20  and  C_21
REMARK    4  A    between atoms: C_21  and  C_22
REMARK    5  A    between atoms: C_22  and  C_23
REMARK    6  A    between atoms: C_23  and  O_24
REMARK                            x       y       z     vdW  Elec       q    Type
REMARK                         _______ _______ _______ _____ _____    ______ ____
ROOT
ATOM      1  N   UNL     1      -7.311  -5.447  20.107  0.00  0.00    +0.000 N 
ATOM      2  C   UNL     1      -7.193  -6.816  19.905  0.00  0.00    +0.000 A 
ATOM      3  C   UNL     1      -8.461  -7.308  19.890  0.00  0.00    +0.000 A 
ATOM      4  C   UNL     1      -9.000  -6.309  19.061  0.00  0.00    +0.000 A 
ATOM      5  C   UNL     1      -9.752  -6.450  17.906  0.00  0.00    +0.000 A 
ATOM      6  C   UNL     1     -10.126  -5.318  17.224  0.00  0.00    +0.000 A 
ATOM      7  C   UNL     1      -9.989  -4.050  17.793  0.00  0.00    +0.000 A 
ATOM      8  C   UNL     1      -9.155  -3.862  18.960  0.00  0.00    +0.000 A 
ATOM      9  C   UNL     1      -9.224  -2.566  19.500  0.00  0.00    +0.000 A 
ATOM     10  C   UNL     1     -10.003  -1.464  19.006  0.00  0.00    +0.000 A 
ATOM     11  C   UNL     1     -10.762  -1.701  17.800  0.00  0.00    +0.000 A 
ATOM     12  C   UNL     1     -11.588  -0.780  17.189  0.00  0.00    +0.000 A 
ATOM     13  C   UNL     1     -12.011   0.560  17.356  0.00  0.00    +0.000 A 
ATOM     14  C   UNL     1     -12.885   1.166  16.448  0.00  0.00    +0.000 A 
ATOM     15  C   UNL     1     -13.352   0.463  15.355  0.00  0.00    +0.000 A 
ATOM     16  C   UNL     1     -12.969  -0.870  15.153  0.00  0.00    +0.000 A 
ATOM     17  C   UNL     1     -12.097  -1.490  16.081  0.00  0.00    +0.000 A 
ATOM     18  N   UNL     1     -11.581  -2.796  16.128  0.00  0.00    +0.000 N 
ATOM     19  C   UNL     1     -10.724  -2.957  17.229  0.00  0.00    +0.000 A 
ATOM     20  C   UNL     1      -9.900  -0.326  19.876  0.00  0.00    +0.000 C 
ATOM     21  O   UNL     1     -10.406   0.792  19.924  0.00  0.00    +0.000 OA
ATOM     22  N   UNL     1      -9.029  -0.789  20.832  0.00  0.00    +0.000 N 
ATOM     23  C   UNL     1      -8.613  -2.079  20.721  0.00  0.00    +0.000 C 
ATOM     24  O   UNL     1      -7.927  -2.608  21.588  0.00  0.00    +0.000 OA
ATOM     25  C   UNL     1      -8.474  -5.045  19.435  0.00  0.00    +0.000 A 
ATOM     26  H   UNL     1      -6.262  -7.279  19.597  0.00  0.00    +0.000 HD
ATOM     27  H   UNL     1      -8.741  -8.356  19.853  0.00  0.00    +0.000 HD
ATOM     28  H   UNL     1      -9.923  -7.438  17.487  0.00  0.00    +0.000 HD
ATOM     29  H   UNL     1     -10.579  -5.529  16.280  0.00  0.00    +0.000 HD
ATOM     30  H   UNL     1     -11.676   1.165  18.192  0.00  0.00    +0.000 HD
ATOM     31  H   UNL     1     -13.195   2.202  16.609  0.00  0.00    +0.000 HD
ATOM     32  H   UNL     1     -14.026   0.951  14.654  0.00  0.00    +0.000 HD
ATOM     33  H   UNL     1     -13.354  -1.397  14.286  0.00  0.00    +0.000 HD
ATOM     34  H   UNL     1      -8.801  -0.218  21.631  0.00  0.00    +0.000 HD
ENDROOT
BRANCH   1  35
ATOM     35  C   UNL     1      -6.165  -4.769  20.673  0.00  0.00    +0.000 C 
ATOM     36  H   UNL     1      -6.369  -3.697  20.658  0.00  0.00    +0.000 HD
ATOM     37  H   UNL     1      -6.136  -5.014  21.758  0.00  0.00    +0.000 HD
BRANCH  35  38
ATOM     38  C   UNL     1      -4.811  -5.121  20.100  0.00  0.00    +0.000 C 
ATOM     39  H   UNL     1      -4.920  -5.987  19.441  0.00  0.00    +0.000 HD
ATOM     40  H   UNL     1      -4.087  -5.350  20.877  0.00  0.00    +0.000 HD
ATOM     41  H   UNL     1      -4.414  -4.299  19.488  0.00  0.00    +0.000 HD
ENDBRANCH  35  38
ENDBRANCH   1  35
BRANCH  18  42
ATOM     42  C   UNL     1     -11.849  -3.791  15.092  0.00  0.00    +0.000 C 
ATOM     43  H   UNL     1     -12.913  -3.744  14.856  0.00  0.00    +0.000 HD
ATOM     44  H   UNL     1     -11.738  -4.781  15.535  0.00  0.00    +0.000 HD
BRANCH  42  45
ATOM     45  C   UNL     1     -10.974  -3.652  13.833  0.00  0.00    +0.000 C 
ATOM     46  H   UNL     1     -10.643  -2.610  13.745  0.00  0.00    +0.000 HD
ATOM     47  H   UNL     1     -11.530  -3.884  12.919  0.00  0.00    +0.000 HD
BRANCH  45  48
ATOM     48  C   UNL     1      -9.746  -4.555  13.903  0.00  0.00    +0.000 C 
ATOM     49  H   UNL     1      -9.846  -5.411  13.225  0.00  0.00    +0.000 HD
ATOM     50  H   UNL     1      -9.597  -4.951  14.915  0.00  0.00    +0.000 HD
BRANCH  48  51
ATOM     51  O   UNL     1      -8.582  -3.828  13.538  0.00  0.00    +0.000 OA
ATOM     52  H   UNL     1      -7.818  -4.267  13.950  0.00  0.00    +0.000 HD
ENDBRANCH  48  51
ENDBRANCH  45  48
ENDBRANCH  42  45
ENDBRANCH  18  42
TORSDOF 6
ENDMDL
MODEL 9
REMARK VINA RESULT:    -7.939      3.919      7.106
REMARK INTER + INTRA:         -10.486
REMARK INTER:                  -9.792
REMARK INTRA:                  -0.693
REMARK UNBOUND:                -0.227
REMARK  Name = 
REMARK  6 active torsions:
REMARK  status: ('A' for Active; 'I' for Inactive)
REMARK    1  A    between atoms: C_1  and  C_2
REMARK    2  A    between atoms: C_2  and  N_3
REMARK    3  A    between atoms: N_20  and  C_21
REMARK    4  A    between atoms: C_21  and  C_22
REMARK    5  A    between atoms: C_22  and  C_23
REMARK    6  A    between atoms: C_23  and  O_24
REMARK                            x       y       z     vdW  Elec       q    Type
REMARK                         _______ _______ _______ _____ _____    ______ ____
ROOT
ATOM      1  N   UNL     1      -8.974   0.518  24.457  0.00  0.00    +0.000 N 
ATOM      2  C   UNL     1      -8.482   0.081  25.679  0.00  0.00    +0.000 A 
ATOM      3  C   UNL     1      -9.123  -1.089  25.950  0.00  0.00    +0.000 A 
ATOM      4  C   UNL     1      -8.982  -1.637  24.662  0.00  0.00    +0.000 A 
ATOM      5  C   UNL     1      -8.491  -2.880  24.296  0.00  0.00    +0.000 A 
ATOM      6  C   UNL     1      -8.395  -3.180  22.959  0.00  0.00    +0.000 A 
ATOM      7  C   UNL     1      -9.006  -2.379  21.991  0.00  0.00    +0.000 A 
ATOM      8  C   UNL     1      -9.467  -1.051  22.330  0.00  0.00    +0.000 A 
ATOM      9  C   UNL     1     -10.181  -0.420  21.297  0.00  0.00    +0.000 A 
ATOM     10  C   UNL     1     -10.465  -0.953  19.992  0.00  0.00    +0.000 A 
ATOM     11  C   UNL     1      -9.920  -2.258  19.696  0.00  0.00    +0.000 A 
ATOM     12  C   UNL     1     -10.105  -2.946  18.515  0.00  0.00    +0.000 A 
ATOM     13  C   UNL     1     -10.744  -2.777  17.263  0.00  0.00    +0.000 A 
ATOM     14  C   UNL     1     -10.664  -3.755  16.267  0.00  0.00    +0.000 A 
ATOM     15  C   UNL     1      -9.945  -4.914  16.485  0.00  0.00    +0.000 A 
ATOM     16  C   UNL     1      -9.304  -5.131  17.713  0.00  0.00    +0.000 A 
ATOM     17  C   UNL     1      -9.399  -4.148  18.729  0.00  0.00    +0.000 A 
ATOM     18  N   UNL     1      -8.879  -4.121  20.033  0.00  0.00    +0.000 N 
ATOM     19  C   UNL     1      -9.208  -2.917  20.678  0.00  0.00    +0.000 A 
ATOM     20  C   UNL     1     -11.307  -0.064  19.242  0.00  0.00    +0.000 C 
ATOM     21  O   UNL     1     -11.858  -0.093  18.145  0.00  0.00    +0.000 OA
ATOM     22  N   UNL     1     -11.455   0.982  20.120  0.00  0.00    +0.000 N 
ATOM     23  C   UNL     1     -10.874   0.852  21.342  0.00  0.00    +0.000 C 
ATOM     24  O   UNL     1     -11.048   1.684  22.226  0.00  0.00    +0.000 OA
ATOM     25  C   UNL     1      -9.210  -0.631  23.688  0.00  0.00    +0.000 A 
ATOM     26  H   UNL     1      -7.602   0.516  26.140  0.00  0.00    +0.000 HD
ATOM     27  H   UNL     1      -9.056  -1.658  26.872  0.00  0.00    +0.000 HD
ATOM     28  H   UNL     1      -8.073  -3.542  25.049  0.00  0.00    +0.000 HD
ATOM     29  H   UNL     1      -7.880  -4.097  22.772  0.00  0.00    +0.000 HD
ATOM     30  H   UNL     1     -11.320  -1.887  17.030  0.00  0.00    +0.000 HD
ATOM     31  H   UNL     1     -11.172  -3.595  15.313  0.00  0.00    +0.000 HD
ATOM     32  H   UNL     1      -9.886  -5.663  15.698  0.00  0.00    +0.000 HD
ATOM     33  H   UNL     1      -8.748  -6.052  17.856  0.00  0.00    +0.000 HD
ATOM     34  H   UNL     1     -12.058   1.756  19.891  0.00  0.00    +0.000 HD
ENDROOT
BRANCH   1  35
ATOM     35  C   UNL     1      -8.875   1.936  24.183  0.00  0.00    +0.000 C 
ATOM     36  H   UNL     1      -8.968   2.074  23.104  0.00  0.00    +0.000 HD
ATOM     37  H   UNL     1      -9.791   2.418  24.588  0.00  0.00    +0.000 HD
BRANCH  35  38
ATOM     38  C   UNL     1      -7.688   2.664  24.772  0.00  0.00    +0.000 C 
ATOM     39  H   UNL     1      -7.973   3.074  25.746  0.00  0.00    +0.000 HD
ATOM     40  H   UNL     1      -7.344   3.469  24.129  0.00  0.00    +0.000 HD
ATOM     41  H   UNL     1      -6.848   1.977  24.946  0.00  0.00    +0.000 HD
ENDBRANCH  35  38
ENDBRANCH   1  35
BRANCH  18  42
ATOM     42  C   UNL     1      -8.032  -5.182  20.572  0.00  0.00    +0.000 C 
ATOM     43  H   UNL     1      -8.332  -6.117  20.095  0.00  0.00    +0.000 HD
ATOM     44  H   UNL     1      -8.305  -5.339  21.616  0.00  0.00    +0.000 HD
BRANCH  42  45
ATOM     45  C   UNL     1      -6.521  -4.924  20.432  0.00  0.00    +0.000 C 
ATOM     46  H   UNL     1      -6.021  -5.238  21.358  0.00  0.00    +0.000 HD
ATOM     47  H   UNL     1      -6.296  -3.861  20.300  0.00  0.00    +0.000 HD
BRANCH  45  48
ATOM     48  C   UNL     1      -5.927  -5.703  19.262  0.00  0.00    +0.000 C 
ATOM     49  H   UNL     1      -6.595  -5.679  18.393  0.00  0.00    +0.000 HD
ATOM     50  H   UNL     1      -5.762  -6.755  19.523  0.00  0.00    +0.000 HD
BRANCH  48  51
ATOM     51  O   UNL     1      -4.679  -5.140  18.884  0.00  0.00    +0.000 OA
ATOM     52  H   UNL     1      -4.080  -5.212  19.647  0.00  0.00    +0.000 HD
ENDBRANCH  48  51
ENDBRANCH  45  48
ENDBRANCH  42  45
ENDBRANCH  18  42
TORSDOF 6
ENDMDL
