REMARK  Name = 
REMARK  7 active torsions:
REMARK  status: ('A' for Active; 'I' for Inactive)
REMARK    1  A    between atoms: C_1  and  C_2
REMARK    2  A    between atoms: C_2  and  N_3
REMARK    3  A    between atoms: N_3  and  C_4
REMARK    4  A    between atoms: C_4  and  C_5
REMARK    5  A    between atoms: C_4  and  C_6
REMARK    6  A    between atoms: C_6  and  C_7
REMARK    7  A    between atoms: N_9  and  C_10
REMARK                            x       y       z     vdW  Elec       q    Type
REMARK                         _______ _______ _______ _____ _____    ______ ____
ROOT
ATOM      1  C   UNL     1      -2.200  -0.699  -0.451  0.00  0.00    +0.000 C 
ATOM      2  H   UNL     1      -2.648  -0.201  -1.310  0.00  0.00    +0.000 HD
ATOM      3  H   UNL     1      -2.447  -1.764  -0.507  0.00  0.00    +0.000 HD
ENDROOT
BRANCH   1   4
ATOM      4  C   UNL     1      -0.702  -0.525  -0.516  0.00  0.00    +0.000 C 
ATOM      5  O   UNL     1      -0.186   0.446   0.058  0.00  0.00    +0.000 OA
ATOM      6  N   UNL     1      -0.006  -1.425  -1.297  0.00  0.00    +0.000 N 
ATOM      7  H   UNL     1      -0.507  -1.852  -2.073  0.00  0.00    +0.000 HD
BRANCH   6   8
ATOM      8  C   UNL     1       1.406  -1.315  -1.448  0.00  0.00    +0.000 A 
ATOM      9  C   UNL     1       2.209  -1.358  -0.294  0.00  0.00    +0.000 A 
ATOM     10  C   UNL     1       3.578  -1.280  -0.477  0.00  0.00    +0.000 A 
ATOM     11  N   UNL     1       4.602  -1.282   0.461  0.00  0.00    +0.000 N 
ATOM     12  C   UNL     1       5.829  -1.157  -0.209  0.00  0.00    +0.000 A 
ATOM     13  O   UNL     1       6.933  -1.104   0.300  0.00  0.00    +0.000 OA
ATOM     14  N   UNL     1       5.532  -1.093  -1.578  0.00  0.00    +0.000 N 
ATOM     15  C   UNL     1       4.150  -1.165  -1.740  0.00  0.00    +0.000 A 
ATOM     16  C   UNL     1       3.403  -1.110  -2.885  0.00  0.00    +0.000 A 
ATOM     17  C   UNL     1       2.009  -1.176  -2.730  0.00  0.00    +0.000 A 
ATOM     18 BR   UNL     1       0.961  -0.853  -4.283  0.00  0.00    +0.000 Br
ATOM     19  H   UNL     1       1.792  -1.456   0.697  0.00  0.00    +0.000 HD
ATOM     20  H   UNL     1       4.530  -1.345   1.463  0.00  0.00    +0.000 HD
ATOM     21  H   UNL     1       6.234  -0.991  -2.294  0.00  0.00    +0.000 HD
ATOM     22  H   UNL     1       3.869  -0.979  -3.852  0.00  0.00    +0.000 HD
ENDBRANCH   6   8
ENDBRANCH   1   4
BRANCH   1  23
ATOM     23  C   UNL     1      -2.737  -0.091   0.874  0.00  0.00    +0.000 C 
ATOM     24  H   UNL     1      -2.211  -0.551   1.723  0.00  0.00    +0.000 HD
BRANCH  23  25
ATOM     25  C   UNL     1      -4.243  -0.287   1.015  0.00  0.00    +0.000 C 
ATOM     26  H   UNL     1      -4.790   0.281   0.254  0.00  0.00    +0.000 HD
ATOM     27  H   UNL     1      -4.598   0.044   1.998  0.00  0.00    +0.000 HD
ATOM     28  H   UNL     1      -4.525  -1.338   0.931  0.00  0.00    +0.000 HD
ENDBRANCH  23  25
BRANCH  23  29
ATOM     29  N   UNL     1      -2.431   1.393   0.942  0.00  0.00    +0.000 N 
ATOM     30  H   UNL     1      -1.402   1.497   0.813  0.00  0.00    +0.000 HD
ATOM     31  H   UNL     1      -2.846   1.883   0.144  0.00  0.00    +0.000 HD
BRANCH  29  32
ATOM     32  C   UNL     1      -2.816   2.066   2.221  0.00  0.00    +0.000 C 
ATOM     33  H   UNL     1      -3.897   1.977   2.333  0.00  0.00    +0.000 HD
ATOM     34  H   UNL     1      -2.305   1.547   3.038  0.00  0.00    +0.000 HD
BRANCH  32  35
ATOM     35  C   UNL     1      -2.448   3.533   2.172  0.00  0.00    +0.000 C 
ATOM     36  H   UNL     1      -2.780   4.023   3.095  0.00  0.00    +0.000 HD
ATOM     37  H   UNL     1      -2.940   4.035   1.333  0.00  0.00    +0.000 HD
ATOM     38  H   UNL     1      -1.369   3.673   2.080  0.00  0.00    +0.000 HD
ENDBRANCH  32  35
ENDBRANCH  29  32
ENDBRANCH  23  29
ENDBRANCH   1  23
TORSDOF 7
