
 OpenBabel01112423163D

 41 44  0  0  1  0  0  0  0  0999 V2000
    3.8553    0.1831    1.0638 O   0  0  0  0  0  0  0  0  0  0  0  0
    3.6348   -0.3518   -0.2623 S   0  0  0  0  0  0  0  0  0  0  0  0
    2.6890   -1.4274   -0.4741 O   0  0  0  0  0  0  0  0  0  0  0  0
    3.2147    0.9340   -1.2451 N   0  0  0  0  0  0  0  0  0  0  0  0
    2.8417    0.7326   -2.5926 C   0  0  0  0  0  0  0  0  0  0  0  0
    1.5286    0.3839   -2.9127 C   0  0  0  0  0  0  0  0  0  0  0  0
    1.1449    0.2004   -4.2509 C   0  0  0  0  0  0  0  0  0  0  0  0
    2.1073    0.3734   -5.2570 C   0  0  0  0  0  0  0  0  0  0  0  0
    1.9967    0.2328   -6.6188 N   0  0  0  0  0  0  0  0  0  0  0  0
    3.1939    0.5044   -7.1047 C   0  0  0  0  0  0  0  0  0  0  0  0
    3.6204    0.4763   -8.5316 C   0  0  2  0  0  0  0  0  0  0  0  0
    3.4798   -0.8948   -9.1672 C   0  0  0  0  0  0  0  0  0  0  0  0
    4.5582   -0.8657  -10.2196 C   0  0  0  0  0  0  0  0  0  0  0  0
    5.6542   -0.0723   -9.5422 C   0  0  0  0  0  0  0  0  0  0  0  0
    5.0265    0.8083   -8.5974 O   0  0  0  0  0  0  0  0  0  0  0  0
    4.0622    0.8414   -6.0953 N   0  0  0  0  0  0  0  0  0  0  0  0
    3.3998    0.7443   -4.9021 C   0  0  0  0  0  0  0  0  0  0  0  0
    3.8068    0.9454   -3.5823 C   0  0  0  0  0  0  0  0  0  0  0  0
    5.2026   -0.8781   -0.8804 C   0  0  0  0  0  0  0  0  0  0  0  0
    5.3673   -2.1768   -1.3767 C   0  0  0  0  0  0  0  0  0  0  0  0
    6.6374   -2.6025   -1.7809 C   0  0  0  0  0  0  0  0  0  0  0  0
    7.7251   -1.7362   -1.6828 C   0  0  0  0  0  0  0  0  0  0  0  0
    9.2890   -2.2753   -2.1527 Cl  0  0  0  0  0  0  0  0  0  0  0  0
    7.5568   -0.4380   -1.2025 C   0  0  0  0  0  0  0  0  0  0  0  0
    6.2902   -0.0161   -0.8009 C   0  0  0  0  0  0  0  0  0  0  0  0
    6.1484    1.2409   -0.3590 F   0  0  0  0  0  0  0  0  0  0  0  0
    3.0701    1.8340   -0.7924 H   0  0  0  0  0  0  0  0  0  0  0  0
    0.7886    0.2429   -2.1282 H   0  0  0  0  0  0  0  0  0  0  0  0
    0.1301   -0.0783   -4.5112 H   0  0  0  0  0  0  0  0  0  0  0  0
    3.0775    1.2370   -9.1041 H   0  0  0  0  0  0  0  0  0  0  0  0
    2.4807   -1.0705   -9.5773 H   0  0  0  0  0  0  0  0  0  0  0  0
    3.6916   -1.6948   -8.4463 H   0  0  0  0  0  0  0  0  0  0  0  0
    4.2001   -0.3289  -11.1057 H   0  0  0  0  0  0  0  0  0  0  0  0
    4.8883   -1.8592  -10.5359 H   0  0  0  0  0  0  0  0  0  0  0  0
    6.2402    0.5161  -10.2544 H   0  0  0  0  0  0  0  0  0  0  0  0
    6.3360   -0.7257   -8.9881 H   0  0  0  0  0  0  0  0  0  0  0  0
    5.0286    1.0977   -6.2439 H   0  0  0  0  0  0  0  0  0  0  0  0
    4.8181    1.2469   -3.3391 H   0  0  0  0  0  0  0  0  0  0  0  0
    4.5240   -2.8621   -1.4367 H   0  0  0  0  0  0  0  0  0  0  0  0
    6.7701   -3.6172   -2.1521 H   0  0  0  0  0  0  0  0  0  0  0  0
    8.3979    0.2441   -1.1260 H   0  0  0  0  0  0  0  0  0  0  0  0
  1  2  2  0  0  0  0
  2  3  2  0  0  0  0
  2  4  1  0  0  0  0
  2 19  1  0  0  0  0
  4  5  1  0  0  0  0
  4 27  1  0  0  0  0
  5  6  1  0  0  0  0
  5 18  2  0  0  0  0
  6  7  2  0  0  0  0
  6 28  1  0  0  0  0
  7  8  1  0  0  0  0
  7 29  1  0  0  0  0
  8  9  1  0  0  0  0
  8 17  2  0  0  0  0
  9 10  2  0  0  0  0
 10 11  1  0  0  0  0
 10 16  1  0  0  0  0
 11 12  1  0  0  0  0
 11 15  1  0  0  0  0
 11 30  1  6  0  0  0
 12 13  1  0  0  0  0
 12 31  1  0  0  0  0
 12 32  1  0  0  0  0
 13 14  1  0  0  0  0
 13 33  1  0  0  0  0
 13 34  1  0  0  0  0
 14 15  1  0  0  0  0
 14 35  1  0  0  0  0
 14 36  1  0  0  0  0
 16 17  1  0  0  0  0
 16 37  1  0  0  0  0
 17 18  1  0  0  0  0
 18 38  1  0  0  0  0
 19 20  1  0  0  0  0
 19 25  2  0  0  0  0
 20 21  2  0  0  0  0
 20 39  1  0  0  0  0
 21 22  1  0  0  0  0
 21 40  1  0  0  0  0
 22 23  1  0  0  0  0
 22 24  2  0  0  0  0
 24 25  1  0  0  0  0
 24 41  1  0  0  0  0
 25 26  1  0  0  0  0
M  END
$$$$
