REMARK  Name = 
REMARK  5 active torsions:
REMARK  status: ('A' for Active; 'I' for Inactive)
REMARK    1  A    between atoms: C_1  and  O_2
REMARK    2  A    between atoms: O_2  and  C_3
REMARK    3  A    between atoms: C_5  and  N_6
REMARK    4  A    between atoms: C_22  and  O_23
REMARK    5  A    between atoms: O_23  and  C_24
REMARK                            x       y       z     vdW  Elec       q    Type
REMARK                         _______ _______ _______ _____ _____    ______ ____
ROOT
ATOM      1  N   UNL     1       1.337   1.897   1.643  0.00  0.00    +0.000 N 
ATOM      2  C   UNL     1       0.321   1.878   0.677  0.00  0.00    +0.000 C 
ATOM      3  N   UNL     1      -0.227   3.062   0.309  0.00  0.00    +0.000 N 
ATOM      4  N   UNL     1      -0.160   0.695   0.165  0.00  0.00    +0.000 N 
ATOM      5  C   UNL     1      -1.237   0.572  -0.744  0.00  0.00    +0.000 A 
ATOM      6  N   UNL     1      -1.718   1.666  -1.223  0.00  0.00    +0.000 NA
ATOM      7  C   UNL     1      -2.788   1.595  -2.082  0.00  0.00    +0.000 A 
ATOM      8  O   UNL     1      -3.229   2.600  -2.620  0.00  0.00    +0.000 OA
ATOM      9  C   UNL     1      -3.437   0.268  -2.293  0.00  0.00    +0.000 A 
ATOM     10  C   UNL     1      -2.859  -0.822  -1.751  0.00  0.00    +0.000 A 
ATOM     11  N   UNL     1      -1.705  -0.676  -1.002  0.00  0.00    +0.000 N 
ATOM     12  C   UNL     1      -3.484  -2.192  -1.895  0.00  0.00    +0.000 C 
ATOM     13  C   UNL     1      -4.939  -2.141  -2.382  0.00  0.00    +0.000 C 
ATOM     14  C   UNL     1      -5.099  -1.162  -3.540  0.00  0.00    +0.000 C 
ATOM     15  C   UNL     1      -4.695   0.249  -3.115  0.00  0.00    +0.000 C 
ATOM     16  H   UNL     1       1.398   2.751   2.187  0.00  0.00    +0.000 HD
ATOM     17  H   UNL     1       0.124   3.958   0.615  0.00  0.00    +0.000 HD
ATOM     18  H   UNL     1      -0.970   3.061  -0.399  0.00  0.00    +0.000 HD
ATOM     19  H   UNL     1       0.263  -0.143   0.544  0.00  0.00    +0.000 HD
ATOM     20  H   UNL     1      -1.332  -1.513  -0.570  0.00  0.00    +0.000 HD
ATOM     21  H   UNL     1      -3.458  -2.718  -0.934  0.00  0.00    +0.000 HD
ATOM     22  H   UNL     1      -2.885  -2.778  -2.602  0.00  0.00    +0.000 HD
ATOM     23  H   UNL     1      -5.593  -1.833  -1.555  0.00  0.00    +0.000 HD
ATOM     24  H   UNL     1      -5.264  -3.142  -2.688  0.00  0.00    +0.000 HD
ATOM     25  H   UNL     1      -6.136  -1.156  -3.894  0.00  0.00    +0.000 HD
ATOM     26  H   UNL     1      -4.475  -1.485  -4.383  0.00  0.00    +0.000 HD
ATOM     27  H   UNL     1      -5.502   0.692  -2.517  0.00  0.00    +0.000 HD
ATOM     28  H   UNL     1      -4.583   0.867  -4.014  0.00  0.00    +0.000 HD
ENDROOT
BRANCH   1  31
ATOM     29  C   UNL     1       3.949  -0.650   0.961  0.00  0.00    +0.000 A 
ATOM     30  C   UNL     1       2.952   0.299   0.752  0.00  0.00    +0.000 A 
ATOM     31  C   UNL     1       2.433   1.038   1.823  0.00  0.00    +0.000 A 
ATOM     32  C   UNL     1       2.968   0.855   3.108  0.00  0.00    +0.000 A 
ATOM     33  C   UNL     1       3.982  -0.079   3.324  0.00  0.00    +0.000 A 
ATOM     34  C   UNL     1       4.455  -0.833   2.248  0.00  0.00    +0.000 A 
ATOM     35  H   UNL     1       2.598   0.503  -0.252  0.00  0.00    +0.000 HD
ATOM     36  H   UNL     1       2.568   1.431   3.937  0.00  0.00    +0.000 HD
ATOM     37  H   UNL     1       5.233  -1.576   2.418  0.00  0.00    +0.000 HD
BRANCH  29  38
ATOM     38  O   UNL     1       4.487  -1.463   0.005  0.00  0.00    +0.000 OA
BRANCH  38  39
ATOM     39  C   UNL     1       3.994  -1.335  -1.323  0.00  0.00    +0.000 C 
ATOM     40  H   UNL     1       4.393  -2.165  -1.913  0.00  0.00    +0.000 HD
ATOM     41  H   UNL     1       4.340  -0.398  -1.771  0.00  0.00    +0.000 HD
ATOM     42  H   UNL     1       2.902  -1.407  -1.360  0.00  0.00    +0.000 HD
ENDBRANCH  38  39
ENDBRANCH  29  38
BRANCH  33  43
ATOM     43  O   UNL     1       4.569  -0.375   4.521  0.00  0.00    +0.000 OA
BRANCH  43  44
ATOM     44  C   UNL     1       4.188   0.387   5.659  0.00  0.00    +0.000 C 
ATOM     45  H   UNL     1       4.733  -0.008   6.522  0.00  0.00    +0.000 HD
ATOM     46  H   UNL     1       3.119   0.284   5.868  0.00  0.00    +0.000 HD
ATOM     47  H   UNL     1       4.468   1.439   5.537  0.00  0.00    +0.000 HD
ENDBRANCH  43  44
ENDBRANCH  33  43
ENDBRANCH   1  31
TORSDOF 5
