MODEL 1
REMARK VINA RESULT:   -10.365      0.000      0.000
REMARK INTER + INTRA:         -12.423
REMARK INTER:                 -12.183
REMARK INTRA:                  -0.240
REMARK UNBOUND:                -0.240
REMARK  Name = 
REMARK  4 active torsions:
REMARK  status: ('A' for Active; 'I' for Inactive)
REMARK    1  A    between atoms: C_1  and  C_2
REMARK    2  A    between atoms: C_7  and  N_8
REMARK    3  A    between atoms: N_8  and  C_9
REMARK    4  A    between atoms: C_22  and  N_23
REMARK                            x       y       z     vdW  Elec       q    Type
REMARK                         _______ _______ _______ _____ _____    ______ ____
ROOT
ATOM      1  C   UNL     1      -9.090  -8.815  18.085  0.00  0.00    +0.000 A 
ATOM      2  N   UNL     1      -8.935  -9.409  19.298  0.00  0.00    +0.000 NA
ATOM      3  C   UNL     1      -8.773  -8.577  20.341  0.00  0.00    +0.000 A 
ATOM      4  N   UNL     1      -8.759  -7.247  20.287  0.00  0.00    +0.000 NA
ATOM      5  C   UNL     1      -8.937  -6.673  19.084  0.00  0.00    +0.000 A 
ATOM      6  N   UNL     1      -8.949  -5.265  18.984  0.00  0.00    +0.000 N 
ATOM      7  C   UNL     1      -8.454  -4.362  19.936  0.00  0.00    +0.000 A 
ATOM      8  C   UNL     1      -7.272  -4.621  20.634  0.00  0.00    +0.000 A 
ATOM      9  C   UNL     1      -6.786  -3.691  21.547  0.00  0.00    +0.000 A 
ATOM     10  C   UNL     1      -7.488  -2.512  21.734  0.00  0.00    +0.000 A 
ATOM     11 CL   UNL     1      -6.932  -1.333  22.849  0.00  0.00    +0.000 Cl
ATOM     12  C   UNL     1      -8.639  -2.311  20.988  0.00  0.00    +0.000 A 
ATOM     13  N   UNL     1      -9.132  -3.207  20.089  0.00  0.00    +0.000 NA
ATOM     14  C   UNL     1      -9.062  -7.425  17.906  0.00  0.00    +0.000 A 
ATOM     15  H   UNL     1      -8.649  -9.021  21.325  0.00  0.00    +0.000 HD
ATOM     16  H   UNL     1      -9.840  -4.913  18.644  0.00  0.00    +0.000 HD
ATOM     17  H   UNL     1      -6.723  -5.542  20.469  0.00  0.00    +0.000 HD
ATOM     18  H   UNL     1      -5.873  -3.890  22.097  0.00  0.00    +0.000 HD
ATOM     19  H   UNL     1      -9.221  -1.398  21.092  0.00  0.00    +0.000 HD
ENDROOT
BRANCH  14  20
ATOM     20  N   UNL     1      -9.292  -6.799  16.658  0.00  0.00    +0.000 N 
ATOM     21  H   UNL     1     -10.248  -6.432  16.612  0.00  0.00    +0.000 HD
ATOM     22  H   UNL     1      -8.641  -6.065  16.409  0.00  0.00    +0.000 HD
ENDBRANCH  14  20
BRANCH   1  23
ATOM     23  N   UNL     1      -9.357  -9.666  16.984  0.00  0.00    +0.000 N 
ATOM     24  H   UNL     1      -9.347  -9.160  16.108  0.00  0.00    +0.000 HD
BRANCH  23  30
ATOM     25  C   UNL     1      -8.609 -11.637  15.690  0.00  0.00    +0.000 A 
ATOM     26  C   UNL     1      -8.365 -13.020  15.699  0.00  0.00    +0.000 A 
ATOM     27  C   UNL     1      -8.501 -13.753  16.872  0.00  0.00    +0.000 A 
ATOM     28  C   UNL     1      -8.885 -13.094  18.026  0.00  0.00    +0.000 A 
ATOM     29  N   UNL     1      -9.119 -11.780  17.987  0.00  0.00    +0.000 N 
ATOM     30  C   UNL     1      -8.998 -11.014  16.890  0.00  0.00    +0.000 A 
ATOM     31  H   UNL     1      -8.073 -13.536  14.783  0.00  0.00    +0.000 HD
ATOM     32  H   UNL     1      -8.315 -14.825  16.880  0.00  0.00    +0.000 HD
ATOM     33  H   UNL     1      -9.021 -13.586  18.982  0.00  0.00    +0.000 HD
ATOM     34  H   UNL     1      -9.423 -11.280  18.829  0.00  0.00    +0.000 HD
BRANCH  25  35
ATOM     35  C   UNL     1      -8.473 -10.880  14.399  0.00  0.00    +0.000 C 
ATOM     36  H   UNL     1      -7.427 -10.827  14.079  0.00  0.00    +0.000 HD
ATOM     37  H   UNL     1      -8.819  -9.848  14.516  0.00  0.00    +0.000 HD
ATOM     38  H   UNL     1      -9.048 -11.373  13.610  0.00  0.00    +0.000 HD
ENDBRANCH  25  35
ENDBRANCH  23  30
ENDBRANCH   1  23
TORSDOF 4
ENDMDL
MODEL 2
REMARK VINA RESULT:    -9.730      2.489      2.690
REMARK INTER + INTRA:         -11.676
REMARK INTER:                 -11.274
REMARK INTRA:                  -0.403
REMARK UNBOUND:                -0.240
REMARK  Name = 
REMARK  4 active torsions:
REMARK  status: ('A' for Active; 'I' for Inactive)
REMARK    1  A    between atoms: C_1  and  C_2
REMARK    2  A    between atoms: C_7  and  N_8
REMARK    3  A    between atoms: N_8  and  C_9
REMARK    4  A    between atoms: C_22  and  N_23
REMARK                            x       y       z     vdW  Elec       q    Type
REMARK                         _______ _______ _______ _____ _____    ______ ____
ROOT
ATOM      1  C   UNL     1      -9.951  -8.292  17.500  0.00  0.00    +0.000 A 
ATOM      2  N   UNL     1      -8.606  -8.108  17.579  0.00  0.00    +0.000 NA
ATOM      3  C   UNL     1      -8.205  -6.885  17.967  0.00  0.00    +0.000 A 
ATOM      4  N   UNL     1      -8.997  -5.864  18.281  0.00  0.00    +0.000 NA
ATOM      5  C   UNL     1     -10.326  -6.068  18.222  0.00  0.00    +0.000 A 
ATOM      6  N   UNL     1     -11.204  -5.017  18.566  0.00  0.00    +0.000 N 
ATOM      7  C   UNL     1     -10.877  -3.655  18.640  0.00  0.00    +0.000 A 
ATOM      8  C   UNL     1     -10.024  -3.063  17.706  0.00  0.00    +0.000 A 
ATOM      9  C   UNL     1      -9.746  -1.702  17.782  0.00  0.00    +0.000 A 
ATOM     10  C   UNL     1     -10.340  -0.957  18.788  0.00  0.00    +0.000 A 
ATOM     11 CL   UNL     1     -10.030   0.723  18.927  0.00  0.00    +0.000 Cl
ATOM     12  C   UNL     1     -11.196  -1.607  19.664  0.00  0.00    +0.000 A 
ATOM     13  N   UNL     1     -11.483  -2.936  19.607  0.00  0.00    +0.000 NA
ATOM     14  C   UNL     1     -10.878  -7.279  17.779  0.00  0.00    +0.000 A 
ATOM     15  H   UNL     1      -7.136  -6.707  18.042  0.00  0.00    +0.000 HD
ATOM     16  H   UNL     1     -11.783  -5.250  19.368  0.00  0.00    +0.000 HD
ATOM     17  H   UNL     1      -9.576  -3.654  16.914  0.00  0.00    +0.000 HD
ATOM     18  H   UNL     1      -9.079  -1.239  17.065  0.00  0.00    +0.000 HD
ATOM     19  H   UNL     1     -11.694  -1.064  20.464  0.00  0.00    +0.000 HD
ENDROOT
BRANCH  14  20
ATOM     20  N   UNL     1     -12.279  -7.484  17.767  0.00  0.00    +0.000 N 
ATOM     21  H   UNL     1     -12.741  -6.841  18.416  0.00  0.00    +0.000 HD
ATOM     22  H   UNL     1     -12.723  -7.419  16.859  0.00  0.00    +0.000 HD
ENDBRANCH  14  20
BRANCH   1  23
ATOM     23  N   UNL     1     -10.402  -9.598  17.185  0.00  0.00    +0.000 N 
ATOM     24  H   UNL     1     -11.303  -9.584  16.726  0.00  0.00    +0.000 HD
BRANCH  23  30
ATOM     25  C   UNL     1      -9.203 -10.992  15.531  0.00  0.00    +0.000 A 
ATOM     26  C   UNL     1      -8.461 -12.163  15.304  0.00  0.00    +0.000 A 
ATOM     27  C   UNL     1      -8.111 -12.993  16.362  0.00  0.00    +0.000 A 
ATOM     28  C   UNL     1      -8.512 -12.644  17.640  0.00  0.00    +0.000 A 
ATOM     29  N   UNL     1      -9.223 -11.530  17.826  0.00  0.00    +0.000 N 
ATOM     30  C   UNL     1      -9.587 -10.683  16.848  0.00  0.00    +0.000 A 
ATOM     31  H   UNL     1      -8.158 -12.439  14.292  0.00  0.00    +0.000 HD
ATOM     32  H   UNL     1      -7.538 -13.902  16.188  0.00  0.00    +0.000 HD
ATOM     33  H   UNL     1      -8.289 -13.235  18.521  0.00  0.00    +0.000 HD
ATOM     34  H   UNL     1      -9.545 -11.267  18.763  0.00  0.00    +0.000 HD
BRANCH  25  35
ATOM     35  C   UNL     1      -9.582 -10.130  14.359  0.00  0.00    +0.000 C 
ATOM     36  H   UNL     1     -10.575  -9.689  14.497  0.00  0.00    +0.000 HD
ATOM     37  H   UNL     1      -9.624 -10.723  13.440  0.00  0.00    +0.000 HD
ATOM     38  H   UNL     1      -8.860  -9.317  14.240  0.00  0.00    +0.000 HD
ENDBRANCH  25  35
ENDBRANCH  23  30
ENDBRANCH   1  23
TORSDOF 4
ENDMDL
MODEL 3
REMARK VINA RESULT:    -9.603      2.217      2.747
REMARK INTER + INTRA:         -11.528
REMARK INTER:                 -11.006
REMARK INTRA:                  -0.521
REMARK UNBOUND:                -0.240
REMARK  Name = 
REMARK  4 active torsions:
REMARK  status: ('A' for Active; 'I' for Inactive)
REMARK    1  A    between atoms: C_1  and  C_2
REMARK    2  A    between atoms: C_7  and  N_8
REMARK    3  A    between atoms: N_8  and  C_9
REMARK    4  A    between atoms: C_22  and  N_23
REMARK                            x       y       z     vdW  Elec       q    Type
REMARK                         _______ _______ _______ _____ _____    ______ ____
ROOT
ATOM      1  C   UNL     1      -9.526  -7.136  17.257  0.00  0.00    +0.000 A 
ATOM      2  N   UNL     1      -8.269  -7.023  17.761  0.00  0.00    +0.000 NA
ATOM      3  C   UNL     1      -8.051  -5.963  18.558  0.00  0.00    +0.000 A 
ATOM      4  N   UNL     1      -8.946  -5.037  18.892  0.00  0.00    +0.000 NA
ATOM      5  C   UNL     1     -10.193  -5.175  18.405  0.00  0.00    +0.000 A 
ATOM      6  N   UNL     1     -11.180  -4.226  18.751  0.00  0.00    +0.000 N 
ATOM      7  C   UNL     1     -10.951  -2.946  19.273  0.00  0.00    +0.000 A 
ATOM      8  C   UNL     1      -9.897  -2.153  18.813  0.00  0.00    +0.000 A 
ATOM      9  C   UNL     1      -9.715  -0.872  19.324  0.00  0.00    +0.000 A 
ATOM     10  C   UNL     1     -10.604  -0.404  20.279  0.00  0.00    +0.000 A 
ATOM     11 CL   UNL     1     -10.423   1.167  20.942  0.00  0.00    +0.000 Cl
ATOM     12  C   UNL     1     -11.641  -1.236  20.669  0.00  0.00    +0.000 A 
ATOM     13  N   UNL     1     -11.838  -2.492  20.183  0.00  0.00    +0.000 NA
ATOM     14  C   UNL     1     -10.541  -6.205  17.519  0.00  0.00    +0.000 A 
ATOM     15  H   UNL     1      -7.056  -5.845  18.978  0.00  0.00    +0.000 HD
ATOM     16  H   UNL     1     -11.951  -4.647  19.263  0.00  0.00    +0.000 HD
ATOM     17  H   UNL     1      -9.216  -2.525  18.055  0.00  0.00    +0.000 HD
ATOM     18  H   UNL     1      -8.894  -0.256  18.976  0.00  0.00    +0.000 HD
ATOM     19  H   UNL     1     -12.370  -0.911  21.409  0.00  0.00    +0.000 HD
ENDROOT
BRANCH  14  20
ATOM     20  N   UNL     1     -11.869  -6.354  17.054  0.00  0.00    +0.000 N 
ATOM     21  H   UNL     1     -11.891  -6.372  16.030  0.00  0.00    +0.000 HD
ATOM     22  H   UNL     1     -12.372  -7.156  17.413  0.00  0.00    +0.000 HD
ENDBRANCH  14  20
BRANCH   1  23
ATOM     23  N   UNL     1      -9.809  -8.295  16.491  0.00  0.00    +0.000 N 
ATOM     24  H   UNL     1      -9.935  -8.077  15.512  0.00  0.00    +0.000 HD
BRANCH  23  30
ATOM     25  C   UNL     1      -9.221 -10.588  15.774  0.00  0.00    +0.000 A 
ATOM     26  C   UNL     1      -8.812 -11.871  16.172  0.00  0.00    +0.000 A 
ATOM     27  C   UNL     1      -8.512 -12.135  17.504  0.00  0.00    +0.000 A 
ATOM     28  C   UNL     1      -8.629 -11.110  18.426  0.00  0.00    +0.000 A 
ATOM     29  N   UNL     1      -9.028  -9.902  18.021  0.00  0.00    +0.000 N 
ATOM     30  C   UNL     1      -9.325  -9.581  16.751  0.00  0.00    +0.000 A 
ATOM     31  H   UNL     1      -8.733 -12.678  15.442  0.00  0.00    +0.000 HD
ATOM     32  H   UNL     1      -8.198 -13.129  17.815  0.00  0.00    +0.000 HD
ATOM     33  H   UNL     1      -8.422 -11.227  19.484  0.00  0.00    +0.000 HD
ATOM     34  H   UNL     1      -9.139  -9.137  18.695  0.00  0.00    +0.000 HD
BRANCH  25  35
ATOM     35  C   UNL     1      -9.558 -10.345  14.330  0.00  0.00    +0.000 C 
ATOM     36  H   UNL     1      -8.703 -10.566  13.681  0.00  0.00    +0.000 HD
ATOM     37  H   UNL     1      -9.816  -9.294  14.164  0.00  0.00    +0.000 HD
ATOM     38  H   UNL     1     -10.393 -10.981  14.025  0.00  0.00    +0.000 HD
ENDBRANCH  25  35
ENDBRANCH  23  30
ENDBRANCH   1  23
TORSDOF 4
ENDMDL
MODEL 4
REMARK VINA RESULT:    -9.570      3.515      8.326
REMARK INTER + INTRA:         -11.488
REMARK INTER:                 -11.767
REMARK INTRA:                   0.279
REMARK UNBOUND:                -0.240
REMARK  Name = 
REMARK  4 active torsions:
REMARK  status: ('A' for Active; 'I' for Inactive)
REMARK    1  A    between atoms: C_1  and  C_2
REMARK    2  A    between atoms: C_7  and  N_8
REMARK    3  A    between atoms: N_8  and  C_9
REMARK    4  A    between atoms: C_22  and  N_23
REMARK                            x       y       z     vdW  Elec       q    Type
REMARK                         _______ _______ _______ _____ _____    ______ ____
ROOT
ATOM      1  C   UNL     1      -9.034  -6.590  18.978  0.00  0.00    +0.000 A 
ATOM      2  N   UNL     1      -9.862  -6.272  17.947  0.00  0.00    +0.000 NA
ATOM      3  C   UNL     1     -10.229  -7.293  17.154  0.00  0.00    +0.000 A 
ATOM      4  N   UNL     1      -9.864  -8.565  17.296  0.00  0.00    +0.000 NA
ATOM      5  C   UNL     1      -9.065  -8.869  18.334  0.00  0.00    +0.000 A 
ATOM      6  N   UNL     1      -8.669 -10.210  18.533  0.00  0.00    +0.000 N 
ATOM      7  C   UNL     1      -8.723 -11.240  17.583  0.00  0.00    +0.000 A 
ATOM      8  C   UNL     1      -8.396 -11.008  16.245  0.00  0.00    +0.000 A 
ATOM      9  C   UNL     1      -8.423 -12.055  15.330  0.00  0.00    +0.000 A 
ATOM     10  C   UNL     1      -8.765 -13.321  15.779  0.00  0.00    +0.000 A 
ATOM     11 CL   UNL     1      -8.814 -14.647  14.692  0.00  0.00    +0.000 Cl
ATOM     12  C   UNL     1      -9.052 -13.482  17.125  0.00  0.00    +0.000 A 
ATOM     13  N   UNL     1      -9.031 -12.472  18.036  0.00  0.00    +0.000 NA
ATOM     14  C   UNL     1      -8.563  -7.891  19.205  0.00  0.00    +0.000 A 
ATOM     15  H   UNL     1     -10.891  -7.071  16.323  0.00  0.00    +0.000 HD
ATOM     16  H   UNL     1      -9.001 -10.579  19.421  0.00  0.00    +0.000 HD
ATOM     17  H   UNL     1      -8.116 -10.015  15.908  0.00  0.00    +0.000 HD
ATOM     18  H   UNL     1      -8.177 -11.880  14.290  0.00  0.00    +0.000 HD
ATOM     19  H   UNL     1      -9.317 -14.458  17.527  0.00  0.00    +0.000 HD
ENDROOT
BRANCH  14  20
ATOM     20  N   UNL     1      -7.760  -8.242  20.316  0.00  0.00    +0.000 N 
ATOM     21  H   UNL     1      -8.184  -9.016  20.836  0.00  0.00    +0.000 HD
ATOM     22  H   UNL     1      -6.796  -8.471  20.105  0.00  0.00    +0.000 HD
ENDBRANCH  14  20
BRANCH   1  23
ATOM     23  N   UNL     1      -8.708  -5.551  19.884  0.00  0.00    +0.000 N 
ATOM     24  H   UNL     1      -9.384  -5.478  20.632  0.00  0.00    +0.000 HD
BRANCH  23  30
ATOM     25  C   UNL     1      -7.124  -4.258  21.276  0.00  0.00    +0.000 A 
ATOM     26  C   UNL     1      -5.796  -3.836  21.455  0.00  0.00    +0.000 A 
ATOM     27  C   UNL     1      -4.793  -4.283  20.603  0.00  0.00    +0.000 A 
ATOM     28  C   UNL     1      -5.130  -5.146  19.576  0.00  0.00    +0.000 A 
ATOM     29  N   UNL     1      -6.401  -5.525  19.424  0.00  0.00    +0.000 N 
ATOM     30  C   UNL     1      -7.414  -5.136  20.216  0.00  0.00    +0.000 A 
ATOM     31  H   UNL     1      -5.539  -3.145  22.260  0.00  0.00    +0.000 HD
ATOM     32  H   UNL     1      -3.764  -3.954  20.738  0.00  0.00    +0.000 HD
ATOM     33  H   UNL     1      -4.415  -5.539  18.862  0.00  0.00    +0.000 HD
ATOM     34  H   UNL     1      -6.671  -6.149  18.657  0.00  0.00    +0.000 HD
BRANCH  25  35
ATOM     35  C   UNL     1      -8.186  -3.738  22.203  0.00  0.00    +0.000 C 
ATOM     36  H   UNL     1      -8.685  -4.557  22.734  0.00  0.00    +0.000 HD
ATOM     37  H   UNL     1      -8.962  -3.206  21.643  0.00  0.00    +0.000 HD
ATOM     38  H   UNL     1      -7.744  -3.068  22.946  0.00  0.00    +0.000 HD
ENDBRANCH  25  35
ENDBRANCH  23  30
ENDBRANCH   1  23
TORSDOF 4
ENDMDL
MODEL 5
REMARK VINA RESULT:    -9.539      3.347      8.534
REMARK INTER + INTRA:         -11.452
REMARK INTER:                 -10.933
REMARK INTRA:                  -0.519
REMARK UNBOUND:                -0.240
REMARK  Name = 
REMARK  4 active torsions:
REMARK  status: ('A' for Active; 'I' for Inactive)
REMARK    1  A    between atoms: C_1  and  C_2
REMARK    2  A    between atoms: C_7  and  N_8
REMARK    3  A    between atoms: N_8  and  C_9
REMARK    4  A    between atoms: C_22  and  N_23
REMARK                            x       y       z     vdW  Elec       q    Type
REMARK                         _______ _______ _______ _____ _____    ______ ____
ROOT
ATOM      1  C   UNL     1      -8.813  -4.661  19.436  0.00  0.00    +0.000 A 
ATOM      2  N   UNL     1      -7.479  -4.894  19.556  0.00  0.00    +0.000 NA
ATOM      3  C   UNL     1      -7.026  -6.017  18.973  0.00  0.00    +0.000 A 
ATOM      4  N   UNL     1      -7.758  -6.898  18.295  0.00  0.00    +0.000 NA
ATOM      5  C   UNL     1      -9.072  -6.642  18.163  0.00  0.00    +0.000 A 
ATOM      6  N   UNL     1      -9.882  -7.540  17.435  0.00  0.00    +0.000 N 
ATOM      7  C   UNL     1      -9.562  -8.865  17.106  0.00  0.00    +0.000 A 
ATOM      8  C   UNL     1      -8.903  -9.697  18.014  0.00  0.00    +0.000 A 
ATOM      9  C   UNL     1      -8.630 -11.019  17.675  0.00  0.00    +0.000 A 
ATOM     10  C   UNL     1      -9.036 -11.484  16.434  0.00  0.00    +0.000 A 
ATOM     11 CL   UNL     1      -8.723 -13.104  15.967  0.00  0.00    +0.000 Cl
ATOM     12  C   UNL     1      -9.708 -10.610  15.596  0.00  0.00    +0.000 A 
ATOM     13  N   UNL     1      -9.986  -9.314  15.907  0.00  0.00    +0.000 NA
ATOM     14  C   UNL     1      -9.684  -5.535  18.769  0.00  0.00    +0.000 A 
ATOM     15  H   UNL     1      -5.964  -6.231  19.050  0.00  0.00    +0.000 HD
ATOM     16  H   UNL     1     -10.300  -7.101  16.618  0.00  0.00    +0.000 HD
ATOM     17  H   UNL     1      -8.602  -9.325  18.988  0.00  0.00    +0.000 HD
ATOM     18  H   UNL     1      -8.112 -11.666  18.372  0.00  0.00    +0.000 HD
ATOM     19  H   UNL     1     -10.055 -10.930  14.615  0.00  0.00    +0.000 HD
ENDROOT
BRANCH  14  20
ATOM     20  N   UNL     1     -11.060  -5.264  18.580  0.00  0.00    +0.000 N 
ATOM     21  H   UNL     1     -11.380  -5.644  17.684  0.00  0.00    +0.000 HD
ATOM     22  H   UNL     1     -11.676  -5.584  19.317  0.00  0.00    +0.000 HD
ENDBRANCH  14  20
BRANCH   1  23
ATOM     23  N   UNL     1      -9.301  -3.438  19.960  0.00  0.00    +0.000 N 
ATOM     24  H   UNL     1     -10.259  -3.268  19.686  0.00  0.00    +0.000 HD
BRANCH  23  30
ATOM     25  C   UNL     1      -8.995  -1.490  21.452  0.00  0.00    +0.000 A 
ATOM     26  C   UNL     1      -8.500  -1.020  22.679  0.00  0.00    +0.000 A 
ATOM     27  C   UNL     1      -7.962  -1.904  23.607  0.00  0.00    +0.000 A 
ATOM     28  C   UNL     1      -7.919  -3.251  23.293  0.00  0.00    +0.000 A 
ATOM     29  N   UNL     1      -8.388  -3.668  22.115  0.00  0.00    +0.000 N 
ATOM     30  C   UNL     1      -8.927  -2.868  21.180  0.00  0.00    +0.000 A 
ATOM     31  H   UNL     1      -8.526   0.044  22.916  0.00  0.00    +0.000 HD
ATOM     32  H   UNL     1      -7.576  -1.543  24.558  0.00  0.00    +0.000 HD
ATOM     33  H   UNL     1      -7.511  -4.009  23.953  0.00  0.00    +0.000 HD
ATOM     34  H   UNL     1      -8.346  -4.660  21.859  0.00  0.00    +0.000 HD
BRANCH  25  35
ATOM     35  C   UNL     1      -9.551  -0.502  20.464  0.00  0.00    +0.000 C 
ATOM     36  H   UNL     1      -8.998  -0.533  19.519  0.00  0.00    +0.000 HD
ATOM     37  H   UNL     1      -9.464   0.520  20.847  0.00  0.00    +0.000 HD
ATOM     38  H   UNL     1     -10.600  -0.728  20.254  0.00  0.00    +0.000 HD
ENDBRANCH  25  35
ENDBRANCH  23  30
ENDBRANCH   1  23
TORSDOF 4
ENDMDL
MODEL 6
REMARK VINA RESULT:    -9.514      3.954      4.792
REMARK INTER + INTRA:         -11.423
REMARK INTER:                 -10.896
REMARK INTRA:                  -0.527
REMARK UNBOUND:                -0.240
REMARK  Name = 
REMARK  4 active torsions:
REMARK  status: ('A' for Active; 'I' for Inactive)
REMARK    1  A    between atoms: C_1  and  C_2
REMARK    2  A    between atoms: C_7  and  N_8
REMARK    3  A    between atoms: N_8  and  C_9
REMARK    4  A    between atoms: C_22  and  N_23
REMARK                            x       y       z     vdW  Elec       q    Type
REMARK                         _______ _______ _______ _____ _____    ______ ____
ROOT
ATOM      1  C   UNL     1      -9.765  -8.283  16.998  0.00  0.00    +0.000 A 
ATOM      2  N   UNL     1      -8.590  -7.850  16.469  0.00  0.00    +0.000 NA
ATOM      3  C   UNL     1      -8.552  -6.555  16.108  0.00  0.00    +0.000 A 
ATOM      4  N   UNL     1      -9.545  -5.679  16.231  0.00  0.00    +0.000 NA
ATOM      5  C   UNL     1     -10.695  -6.115  16.778  0.00  0.00    +0.000 A 
ATOM      6  N   UNL     1     -11.768  -5.214  16.944  0.00  0.00    +0.000 N 
ATOM      7  C   UNL     1     -11.923  -3.980  16.296  0.00  0.00    +0.000 A 
ATOM      8  C   UNL     1     -11.581  -3.821  14.951  0.00  0.00    +0.000 A 
ATOM      9  C   UNL     1     -11.777  -2.596  14.323  0.00  0.00    +0.000 A 
ATOM     10  C   UNL     1     -12.328  -1.555  15.054  0.00  0.00    +0.000 A 
ATOM     11 CL   UNL     1     -12.591  -0.024  14.327  0.00  0.00    +0.000 Cl
ATOM     12  C   UNL     1     -12.667  -1.792  16.376  0.00  0.00    +0.000 A 
ATOM     13  N   UNL     1     -12.484  -2.983  17.010  0.00  0.00    +0.000 NA
ATOM     14  C   UNL     1     -10.887  -7.455  17.147  0.00  0.00    +0.000 A 
ATOM     15  H   UNL     1      -7.626  -6.178  15.684  0.00  0.00    +0.000 HD
ATOM     16  H   UNL     1     -12.018  -5.093  17.922  0.00  0.00    +0.000 HD
ATOM     17  H   UNL     1     -11.163  -4.648  14.385  0.00  0.00    +0.000 HD
ATOM     18  H   UNL     1     -11.507  -2.465  13.282  0.00  0.00    +0.000 HD
ATOM     19  H   UNL     1     -13.110  -1.010  16.989  0.00  0.00    +0.000 HD
ENDROOT
BRANCH  14  20
ATOM     20  N   UNL     1     -12.089  -7.880  17.761  0.00  0.00    +0.000 N 
ATOM     21  H   UNL     1     -12.228  -7.393  18.651  0.00  0.00    +0.000 HD
ATOM     22  H   UNL     1     -12.925  -7.790  17.197  0.00  0.00    +0.000 HD
ENDBRANCH  14  20
BRANCH   1  23
ATOM     23  N   UNL     1      -9.802  -9.617  17.474  0.00  0.00    +0.000 N 
ATOM     24  H   UNL     1     -10.588  -9.775  18.088  0.00  0.00    +0.000 HD
BRANCH  23  30
ATOM     25  C   UNL     1      -8.698 -11.828  17.367  0.00  0.00    +0.000 A 
ATOM     26  C   UNL     1      -8.223 -12.862  16.544  0.00  0.00    +0.000 A 
ATOM     27  C   UNL     1      -8.418 -12.815  15.169  0.00  0.00    +0.000 A 
ATOM     28  C   UNL     1      -9.083 -11.728  14.630  0.00  0.00    +0.000 A 
ATOM     29  N   UNL     1      -9.517 -10.755  15.435  0.00  0.00    +0.000 N 
ATOM     30  C   UNL     1      -9.368 -10.745  16.770  0.00  0.00    +0.000 A 
ATOM     31  H   UNL     1      -7.689 -13.711  16.974  0.00  0.00    +0.000 HD
ATOM     32  H   UNL     1      -8.049 -13.613  14.528  0.00  0.00    +0.000 HD
ATOM     33  H   UNL     1      -9.273 -11.605  13.569  0.00  0.00    +0.000 HD
ATOM     34  H   UNL     1      -9.994  -9.933  15.050  0.00  0.00    +0.000 HD
BRANCH  25  35
ATOM     35  C   UNL     1      -8.451 -11.903  18.848  0.00  0.00    +0.000 C 
ATOM     36  H   UNL     1      -8.211 -12.925  19.159  0.00  0.00    +0.000 HD
ATOM     37  H   UNL     1      -9.346 -11.606  19.406  0.00  0.00    +0.000 HD
ATOM     38  H   UNL     1      -7.614 -11.255  19.124  0.00  0.00    +0.000 HD
ENDBRANCH  25  35
ENDBRANCH  23  30
ENDBRANCH   1  23
TORSDOF 4
ENDMDL
MODEL 7
REMARK VINA RESULT:    -9.482      3.706      8.596
REMARK INTER + INTRA:         -11.385
REMARK INTER:                 -10.989
REMARK INTRA:                  -0.395
REMARK UNBOUND:                -0.240
REMARK  Name = 
REMARK  4 active torsions:
REMARK  status: ('A' for Active; 'I' for Inactive)
REMARK    1  A    between atoms: C_1  and  C_2
REMARK    2  A    between atoms: C_7  and  N_8
REMARK    3  A    between atoms: N_8  and  C_9
REMARK    4  A    between atoms: C_22  and  N_23
REMARK                            x       y       z     vdW  Elec       q    Type
REMARK                         _______ _______ _______ _____ _____    ______ ____
ROOT
ATOM      1  C   UNL     1     -10.010  -6.159  18.403  0.00  0.00    +0.000 A 
ATOM      2  N   UNL     1     -11.050  -6.174  17.528  0.00  0.00    +0.000 NA
ATOM      3  C   UNL     1     -11.283  -7.347  16.914  0.00  0.00    +0.000 A 
ATOM      4  N   UNL     1     -10.598  -8.474  17.093  0.00  0.00    +0.000 NA
ATOM      5  C   UNL     1      -9.586  -8.451  17.979  0.00  0.00    +0.000 A 
ATOM      6  N   UNL     1      -8.845  -9.630  18.215  0.00  0.00    +0.000 N 
ATOM      7  C   UNL     1      -8.802 -10.760  17.386  0.00  0.00    +0.000 A 
ATOM      8  C   UNL     1      -8.771 -10.638  15.995  0.00  0.00    +0.000 A 
ATOM      9  C   UNL     1      -8.692 -11.776  15.198  0.00  0.00    +0.000 A 
ATOM     10  C   UNL     1      -8.632 -13.016  15.814  0.00  0.00    +0.000 A 
ATOM     11 CL   UNL     1      -8.535 -14.449  14.878  0.00  0.00    +0.000 Cl
ATOM     12  C   UNL     1      -8.641 -13.060  17.199  0.00  0.00    +0.000 A 
ATOM     13  N   UNL     1      -8.717 -11.960  17.997  0.00  0.00    +0.000 NA
ATOM     14  C   UNL     1      -9.202  -7.279  18.648  0.00  0.00    +0.000 A 
ATOM     15  H   UNL     1     -12.109  -7.391  16.211  0.00  0.00    +0.000 HD
ATOM     16  H   UNL     1      -8.922  -9.944  19.179  0.00  0.00    +0.000 HD
ATOM     17  H   UNL     1      -8.804  -9.661  15.525  0.00  0.00    +0.000 HD
ATOM     18  H   UNL     1      -8.675 -11.687  14.119  0.00  0.00    +0.000 HD
ATOM     19  H   UNL     1      -8.587 -14.008  17.729  0.00  0.00    +0.000 HD
ENDROOT
BRANCH  14  20
ATOM     20  N   UNL     1      -8.162  -7.291  19.608  0.00  0.00    +0.000 N 
ATOM     21  H   UNL     1      -7.537  -8.086  19.450  0.00  0.00    +0.000 HD
ATOM     22  H   UNL     1      -7.613  -6.442  19.670  0.00  0.00    +0.000 HD
ENDBRANCH  14  20
BRANCH   1  23
ATOM     23  N   UNL     1      -9.802  -4.963  19.134  0.00  0.00    +0.000 N 
ATOM     24  H   UNL     1      -9.181  -5.105  19.919  0.00  0.00    +0.000 HD
BRANCH  23  30
ATOM     25  C   UNL     1      -9.520  -2.516  19.351  0.00  0.00    +0.000 A 
ATOM     26  C   UNL     1      -9.628  -1.264  18.723  0.00  0.00    +0.000 A 
ATOM     27  C   UNL     1      -9.985  -1.175  17.383  0.00  0.00    +0.000 A 
ATOM     28  C   UNL     1     -10.236  -2.342  16.684  0.00  0.00    +0.000 A 
ATOM     29  N   UNL     1     -10.134  -3.518  17.308  0.00  0.00    +0.000 N 
ATOM     30  C   UNL     1      -9.787  -3.673  18.596  0.00  0.00    +0.000 A 
ATOM     31  H   UNL     1      -9.440  -0.346  19.283  0.00  0.00    +0.000 HD
ATOM     32  H   UNL     1     -10.072  -0.206  16.895  0.00  0.00    +0.000 HD
ATOM     33  H   UNL     1     -10.525  -2.367  15.639  0.00  0.00    +0.000 HD
ATOM     34  H   UNL     1     -10.335  -4.392  16.810  0.00  0.00    +0.000 HD
BRANCH  25  35
ATOM     35  C   UNL     1      -9.153  -2.572  20.807  0.00  0.00    +0.000 C 
ATOM     36  H   UNL     1      -9.751  -3.321  21.338  0.00  0.00    +0.000 HD
ATOM     37  H   UNL     1      -9.347  -1.611  21.293  0.00  0.00    +0.000 HD
ATOM     38  H   UNL     1      -8.098  -2.835  20.920  0.00  0.00    +0.000 HD
ENDBRANCH  25  35
ENDBRANCH  23  30
ENDBRANCH   1  23
TORSDOF 4
ENDMDL
MODEL 8
REMARK VINA RESULT:    -9.292      3.804      8.620
REMARK INTER + INTRA:         -11.162
REMARK INTER:                 -10.641
REMARK INTRA:                  -0.521
REMARK UNBOUND:                -0.240
REMARK  Name = 
REMARK  4 active torsions:
REMARK  status: ('A' for Active; 'I' for Inactive)
REMARK    1  A    between atoms: C_1  and  C_2
REMARK    2  A    between atoms: C_7  and  N_8
REMARK    3  A    between atoms: N_8  and  C_9
REMARK    4  A    between atoms: C_22  and  N_23
REMARK                            x       y       z     vdW  Elec       q    Type
REMARK                         _______ _______ _______ _____ _____    ______ ____
ROOT
ATOM      1  C   UNL     1     -10.782  -5.059  17.783  0.00  0.00    +0.000 A 
ATOM      2  N   UNL     1      -9.870  -5.244  18.775  0.00  0.00    +0.000 NA
ATOM      3  C   UNL     1      -9.118  -6.353  18.679  0.00  0.00    +0.000 A 
ATOM      4  N   UNL     1      -9.185  -7.263  17.710  0.00  0.00    +0.000 NA
ATOM      5  C   UNL     1     -10.075  -7.055  16.723  0.00  0.00    +0.000 A 
ATOM      6  N   UNL     1     -10.166  -7.986  15.665  0.00  0.00    +0.000 N 
ATOM      7  C   UNL     1      -9.679  -9.301  15.674  0.00  0.00    +0.000 A 
ATOM      8  C   UNL     1      -9.783 -10.104  16.812  0.00  0.00    +0.000 A 
ATOM      9  C   UNL     1      -9.323 -11.416  16.782  0.00  0.00    +0.000 A 
ATOM     10  C   UNL     1      -8.780 -11.904  15.604  0.00  0.00    +0.000 A 
ATOM     11 CL   UNL     1      -8.199 -13.515  15.514  0.00  0.00    +0.000 Cl
ATOM     12  C   UNL     1      -8.733 -11.059  14.507  0.00  0.00    +0.000 A 
ATOM     13  N   UNL     1      -9.177  -9.772  14.514  0.00  0.00    +0.000 NA
ATOM     14  C   UNL     1     -10.959  -5.967  16.730  0.00  0.00    +0.000 A 
ATOM     15  H   UNL     1      -8.379  -6.529  19.455  0.00  0.00    +0.000 HD
ATOM     16  H   UNL     1      -9.936  -7.567  14.767  0.00  0.00    +0.000 HD
ATOM     17  H   UNL     1     -10.222  -9.715  17.725  0.00  0.00    +0.000 HD
ATOM     18  H   UNL     1      -9.394 -12.041  17.664  0.00  0.00    +0.000 HD
ATOM     19  H   UNL     1      -8.324 -11.397  13.557  0.00  0.00    +0.000 HD
ENDROOT
BRANCH  14  20
ATOM     20  N   UNL     1     -11.857  -5.745  15.658  0.00  0.00    +0.000 N 
ATOM     21  H   UNL     1     -12.600  -6.450  15.661  0.00  0.00    +0.000 HD
ATOM     22  H   UNL     1     -12.273  -4.823  15.618  0.00  0.00    +0.000 HD
ENDBRANCH  14  20
BRANCH   1  23
ATOM     23  N   UNL     1     -11.522  -3.850  17.809  0.00  0.00    +0.000 N 
ATOM     24  H   UNL     1     -12.477  -3.989  17.509  0.00  0.00    +0.000 HD
BRANCH  23  30
ATOM     25  C   UNL     1     -10.559  -1.660  18.434  0.00  0.00    +0.000 A 
ATOM     26  C   UNL     1     -10.363  -0.714  19.454  0.00  0.00    +0.000 A 
ATOM     27  C   UNL     1     -10.931  -0.902  20.709  0.00  0.00    +0.000 A 
ATOM     28  C   UNL     1     -11.686  -2.039  20.932  0.00  0.00    +0.000 A 
ATOM     29  N   UNL     1     -11.850  -2.925  19.947  0.00  0.00    +0.000 N 
ATOM     30  C   UNL     1     -11.335  -2.800  18.712  0.00  0.00    +0.000 A 
ATOM     31  H   UNL     1      -9.756   0.175  19.275  0.00  0.00    +0.000 HD
ATOM     32  H   UNL     1     -10.778  -0.172  21.501  0.00  0.00    +0.000 HD
ATOM     33  H   UNL     1     -12.160  -2.269  21.880  0.00  0.00    +0.000 HD
ATOM     34  H   UNL     1     -12.390  -3.783  20.102  0.00  0.00    +0.000 HD
BRANCH  25  35
ATOM     35  C   UNL     1      -9.912  -1.435  17.096  0.00  0.00    +0.000 C 
ATOM     36  H   UNL     1     -10.364  -0.583  16.576  0.00  0.00    +0.000 HD
ATOM     37  H   UNL     1     -10.047  -2.307  16.449  0.00  0.00    +0.000 HD
ATOM     38  H   UNL     1      -8.845  -1.232  17.222  0.00  0.00    +0.000 HD
ENDBRANCH  25  35
ENDBRANCH  23  30
ENDBRANCH   1  23
TORSDOF 4
ENDMDL
MODEL 9
REMARK VINA RESULT:    -9.240      1.380      2.685
REMARK INTER + INTRA:         -11.101
REMARK INTER:                 -10.518
REMARK INTRA:                  -0.583
REMARK UNBOUND:                -0.240
REMARK  Name = 
REMARK  4 active torsions:
REMARK  status: ('A' for Active; 'I' for Inactive)
REMARK    1  A    between atoms: C_1  and  C_2
REMARK    2  A    between atoms: C_7  and  N_8
REMARK    3  A    between atoms: N_8  and  C_9
REMARK    4  A    between atoms: C_22  and  N_23
REMARK                            x       y       z     vdW  Elec       q    Type
REMARK                         _______ _______ _______ _____ _____    ______ ____
ROOT
ATOM      1  C   UNL     1     -10.054  -7.729  17.913  0.00  0.00    +0.000 A 
ATOM      2  N   UNL     1     -10.509  -6.707  17.140  0.00  0.00    +0.000 NA
ATOM      3  C   UNL     1     -10.076  -5.480  17.476  0.00  0.00    +0.000 A 
ATOM      4  N   UNL     1      -9.249  -5.189  18.477  0.00  0.00    +0.000 NA
ATOM      5  C   UNL     1      -8.788  -6.212  19.219  0.00  0.00    +0.000 A 
ATOM      6  N   UNL     1      -7.893  -5.949  20.280  0.00  0.00    +0.000 N 
ATOM      7  C   UNL     1      -7.676  -4.707  20.892  0.00  0.00    +0.000 A 
ATOM      8  C   UNL     1      -8.733  -3.829  21.145  0.00  0.00    +0.000 A 
ATOM      9  C   UNL     1      -8.494  -2.618  21.787  0.00  0.00    +0.000 A 
ATOM     10  C   UNL     1      -7.198  -2.317  22.176  0.00  0.00    +0.000 A 
ATOM     11 CL   UNL     1      -6.850  -0.837  22.970  0.00  0.00    +0.000 Cl
ATOM     12  C   UNL     1      -6.204  -3.246  21.916  0.00  0.00    +0.000 A 
ATOM     13  N   UNL     1      -6.416  -4.436  21.290  0.00  0.00    +0.000 NA
ATOM     14  C   UNL     1      -9.203  -7.535  19.011  0.00  0.00    +0.000 A 
ATOM     15  H   UNL     1     -10.421  -4.643  16.877  0.00  0.00    +0.000 HD
ATOM     16  H   UNL     1      -6.991  -6.397  20.138  0.00  0.00    +0.000 HD
ATOM     17  H   UNL     1      -9.745  -4.083  20.848  0.00  0.00    +0.000 HD
ATOM     18  H   UNL     1      -9.308  -1.931  21.978  0.00  0.00    +0.000 HD
ATOM     19  H   UNL     1      -5.173  -3.060  22.210  0.00  0.00    +0.000 HD
ENDROOT
BRANCH  14  20
ATOM     20  N   UNL     1      -8.670  -8.599  19.776  0.00  0.00    +0.000 N 
ATOM     21  H   UNL     1      -9.134  -8.653  20.689  0.00  0.00    +0.000 HD
ATOM     22  H   UNL     1      -8.694  -9.511  19.336  0.00  0.00    +0.000 HD
ENDBRANCH  14  20
BRANCH   1  23
ATOM     23  N   UNL     1     -10.419  -9.041  17.524  0.00  0.00    +0.000 N 
ATOM     24  H   UNL     1     -11.405  -9.215  17.668  0.00  0.00    +0.000 HD
BRANCH  23  30
ATOM     25  C   UNL     1      -9.136 -10.978  16.676  0.00  0.00    +0.000 A 
ATOM     26  C   UNL     1      -8.511 -11.576  15.570  0.00  0.00    +0.000 A 
ATOM     27  C   UNL     1      -8.593 -10.990  14.312  0.00  0.00    +0.000 A 
ATOM     28  C   UNL     1      -9.296  -9.807  14.175  0.00  0.00    +0.000 A 
ATOM     29  N   UNL     1      -9.873  -9.256  15.246  0.00  0.00    +0.000 N 
ATOM     30  C   UNL     1      -9.838  -9.774  16.485  0.00  0.00    +0.000 A 
ATOM     31  H   UNL     1      -7.948 -12.503  15.686  0.00  0.00    +0.000 HD
ATOM     32  H   UNL     1      -8.107 -11.450  13.453  0.00  0.00    +0.000 HD
ATOM     33  H   UNL     1      -9.406  -9.278  13.235  0.00  0.00    +0.000 HD
ATOM     34  H   UNL     1     -10.381  -8.369  15.166  0.00  0.00    +0.000 HD
BRANCH  25  35
ATOM     35  C   UNL     1      -9.009 -11.629  18.026  0.00  0.00    +0.000 C 
ATOM     36  H   UNL     1      -8.584 -12.635  17.942  0.00  0.00    +0.000 HD
ATOM     37  H   UNL     1      -9.991 -11.739  18.496  0.00  0.00    +0.000 HD
ATOM     38  H   UNL     1      -8.356 -11.034  18.671  0.00  0.00    +0.000 HD
ENDBRANCH  25  35
ENDBRANCH  23  30
ENDBRANCH   1  23
TORSDOF 4
ENDMDL
