MODEL 1
REMARK VINA RESULT:   -10.846      0.000      0.000
REMARK INTER + INTRA:         -14.380
REMARK INTER:                 -14.016
REMARK INTRA:                  -0.364
REMARK UNBOUND:                -0.364
REMARK  Name = 
REMARK  6 active torsions:
REMARK  status: ('A' for Active; 'I' for Inactive)
REMARK    1  A    between atoms: C_1  and  C_2
REMARK    2  A    between atoms: C_4  and  O_5
REMARK    3  A    between atoms: N_10  and  C_11
REMARK    4  A    between atoms: C_11  and  C_12
REMARK    5  A    between atoms: N_14  and  C_15
REMARK    6  A    between atoms: C_18  and  C_19
REMARK                            x       y       z     vdW  Elec       q    Type
REMARK                         _______ _______ _______ _____ _____    ______ ____
ROOT
ATOM      1  C   UNL     1      -8.772  -0.143  24.841  0.00  0.00    +0.000 A 
ATOM      2  C   UNL     1      -8.873  -0.388  26.267  0.00  0.00    +0.000 A 
ATOM      3  C   UNL     1      -8.879  -1.642  26.744  0.00  0.00    +0.000 A 
ATOM      4  O   UNL     1      -8.819  -2.743  25.900  0.00  0.00    +0.000 OA
ATOM      5  C   UNL     1      -8.641  -2.560  24.533  0.00  0.00    +0.000 A 
ATOM      6  C   UNL     1      -8.484  -3.623  23.726  0.00  0.00    +0.000 A 
ATOM      7  C   UNL     1      -8.249  -3.417  22.268  0.00  0.00    +0.000 A 
ATOM      8  N   UNL     1      -8.103  -4.415  21.466  0.00  0.00    +0.000 N 
ATOM      9  C   UNL     1      -8.193  -2.018  21.758  0.00  0.00    +0.000 A 
ATOM     10  C   UNL     1      -8.411  -0.989  22.583  0.00  0.00    +0.000 A 
ATOM     11  C   UNL     1      -8.624  -1.193  24.002  0.00  0.00    +0.000 A 
ATOM     12  H   UNL     1      -8.905   0.466  26.935  0.00  0.00    +0.000 HD
ATOM     13  H   UNL     1      -8.506  -4.624  24.145  0.00  0.00    +0.000 HD
ATOM     14  H   UNL     1      -8.199  -5.368  21.839  0.00  0.00    +0.000 HD
ATOM     15  H   UNL     1      -7.994  -1.811  20.712  0.00  0.00    +0.000 HD
ATOM     16  H   UNL     1      -8.400   0.017  22.175  0.00  0.00    +0.000 HD
ENDROOT
BRANCH   1  17
ATOM     17  C   UNL     1      -8.787   1.297  24.400  0.00  0.00    +0.000 C 
ATOM     18  H   UNL     1      -9.634   1.856  24.808  0.00  0.00    +0.000 HD
ATOM     19  H   UNL     1      -8.849   1.360  23.308  0.00  0.00    +0.000 HD
ATOM     20  H   UNL     1      -7.877   1.810  24.731  0.00  0.00    +0.000 HD
ENDBRANCH   1  17
BRANCH   8  21
ATOM     21  C   UNL     1      -7.835  -4.329  20.009  0.00  0.00    +0.000 C 
ATOM     22  H   UNL     1      -6.909  -3.777  19.845  0.00  0.00    +0.000 HD
ATOM     23  H   UNL     1      -8.685  -3.826  19.527  0.00  0.00    +0.000 HD
BRANCH  21  24
ATOM     24  C   UNL     1      -7.740  -5.723  19.476  0.00  0.00    +0.000 C 
ATOM     25  O   UNL     1      -6.840  -5.991  18.699  0.00  0.00    +0.000 OA
ATOM     26  N   UNL     1      -8.813  -6.535  19.831  0.00  0.00    +0.000 N 
ATOM     27  H   UNL     1      -9.649  -6.135  20.242  0.00  0.00    +0.000 HD
BRANCH  26  28
ATOM     28  C   UNL     1      -8.930  -7.873  19.400  0.00  0.00    +0.000 A 
ATOM     29  C   UNL     1      -8.522  -8.936  20.200  0.00  0.00    +0.000 A 
ATOM     30  C   UNL     1      -8.462 -10.231  19.693  0.00  0.00    +0.000 A 
ATOM     31  C   UNL     1      -8.832 -10.475  18.373  0.00  0.00    +0.000 A 
ATOM     32  C   UNL     1      -9.349  -9.422  17.601  0.00  0.00    +0.000 A 
ATOM     33  C   UNL     1      -9.417  -8.123  18.117  0.00  0.00    +0.000 A 
ATOM     34  H   UNL     1      -8.216  -8.795  21.233  0.00  0.00    +0.000 HD
ATOM     35  H   UNL     1      -8.103 -11.009  20.354  0.00  0.00    +0.000 HD
ATOM     36  H   UNL     1      -9.671  -9.609  16.576  0.00  0.00    +0.000 HD
ATOM     37  H   UNL     1      -9.794  -7.330  17.477  0.00  0.00    +0.000 HD
BRANCH  31  38
ATOM     38  C   UNL     1      -8.664 -11.808  17.736  0.00  0.00    +0.000 C 
ATOM     39  N   UNL     1      -8.773 -12.925  18.516  0.00  0.00    +0.000 N 
ATOM     40  O   UNL     1      -8.398 -11.907  16.546  0.00  0.00    +0.000 OA
ATOM     41  H   UNL     1      -8.889 -12.935  19.517  0.00  0.00    +0.000 HD
ATOM     42  H   UNL     1      -8.589 -13.812  18.064  0.00  0.00    +0.000 HD
ENDBRANCH  31  38
ENDBRANCH  26  28
ENDBRANCH  21  24
ENDBRANCH   8  21
BRANCH   3  43
ATOM     43  O   UNL     1      -8.919  -1.898  28.097  0.00  0.00    +0.000 OA
ATOM     44  H   UNL     1      -8.021  -1.814  28.462  0.00  0.00    +0.000 HD
ENDBRANCH   3  43
TORSDOF 6
ENDMDL
MODEL 2
REMARK VINA RESULT:   -10.509      3.488      5.283
REMARK INTER + INTRA:         -13.945
REMARK INTER:                 -14.090
REMARK INTRA:                   0.145
REMARK UNBOUND:                -0.364
REMARK  Name = 
REMARK  6 active torsions:
REMARK  status: ('A' for Active; 'I' for Inactive)
REMARK    1  A    between atoms: C_1  and  C_2
REMARK    2  A    between atoms: C_4  and  O_5
REMARK    3  A    between atoms: N_10  and  C_11
REMARK    4  A    between atoms: C_11  and  C_12
REMARK    5  A    between atoms: N_14  and  C_15
REMARK    6  A    between atoms: C_18  and  C_19
REMARK                            x       y       z     vdW  Elec       q    Type
REMARK                         _______ _______ _______ _____ _____    ______ ____
ROOT
ATOM      1  C   UNL     1      -5.797  -5.095  20.185  0.00  0.00    +0.000 A 
ATOM      2  C   UNL     1      -5.930  -4.290  21.384  0.00  0.00    +0.000 A 
ATOM      3  C   UNL     1      -7.091  -3.684  21.674  0.00  0.00    +0.000 A 
ATOM      4  O   UNL     1      -8.191  -3.776  20.831  0.00  0.00    +0.000 OA
ATOM      5  C   UNL     1      -8.139  -4.598  19.710  0.00  0.00    +0.000 A 
ATOM      6  C   UNL     1      -9.232  -4.767  18.948  0.00  0.00    +0.000 A 
ATOM      7  C   UNL     1      -9.182  -5.685  17.774  0.00  0.00    +0.000 A 
ATOM      8  N   UNL     1     -10.210  -5.862  17.018  0.00  0.00    +0.000 N 
ATOM      9  C   UNL     1      -7.901  -6.393  17.493  0.00  0.00    +0.000 A 
ATOM     10  C   UNL     1      -6.819  -6.156  18.242  0.00  0.00    +0.000 A 
ATOM     11  C   UNL     1      -6.878  -5.274  19.390  0.00  0.00    +0.000 A 
ATOM     12  H   UNL     1      -5.080  -4.225  22.057  0.00  0.00    +0.000 HD
ATOM     13  H   UNL     1     -10.151  -4.250  19.205  0.00  0.00    +0.000 HD
ATOM     14  H   UNL     1     -11.062  -5.320  17.206  0.00  0.00    +0.000 HD
ATOM     15  H   UNL     1      -7.819  -7.096  16.671  0.00  0.00    +0.000 HD
ATOM     16  H   UNL     1      -5.891  -6.660  17.990  0.00  0.00    +0.000 HD
ENDROOT
BRANCH   1  17
ATOM     17  C   UNL     1      -4.452  -5.725  19.939  0.00  0.00    +0.000 C 
ATOM     18  H   UNL     1      -4.526  -6.729  19.510  0.00  0.00    +0.000 HD
ATOM     19  H   UNL     1      -3.895  -5.813  20.879  0.00  0.00    +0.000 HD
ATOM     20  H   UNL     1      -3.866  -5.120  19.238  0.00  0.00    +0.000 HD
ENDBRANCH   1  17
BRANCH   8  21
ATOM     21  C   UNL     1     -10.283  -6.771  15.847  0.00  0.00    +0.000 C 
ATOM     22  H   UNL     1      -9.451  -6.559  15.175  0.00  0.00    +0.000 HD
ATOM     23  H   UNL     1     -11.247  -6.617  15.344  0.00  0.00    +0.000 HD
BRANCH  21  24
ATOM     24  C   UNL     1     -10.228  -8.178  16.353  0.00  0.00    +0.000 C 
ATOM     25  O   UNL     1     -11.044  -8.529  17.189  0.00  0.00    +0.000 OA
ATOM     26  N   UNL     1      -9.126  -8.896  15.901  0.00  0.00    +0.000 N 
ATOM     27  H   UNL     1      -8.357  -8.424  15.439  0.00  0.00    +0.000 HD
BRANCH  26  28
ATOM     28  C   UNL     1      -8.874 -10.227  16.292  0.00  0.00    +0.000 A 
ATOM     29  C   UNL     1      -8.770 -11.255  15.359  0.00  0.00    +0.000 A 
ATOM     30  C   UNL     1      -8.713 -12.585  15.764  0.00  0.00    +0.000 A 
ATOM     31  C   UNL     1      -8.743 -12.898  17.120  0.00  0.00    +0.000 A 
ATOM     32  C   UNL     1      -8.735 -11.857  18.063  0.00  0.00    +0.000 A 
ATOM     33  C   UNL     1      -8.781 -10.521  17.653  0.00  0.00    +0.000 A 
ATOM     34  H   UNL     1      -8.751 -11.062  14.290  0.00  0.00    +0.000 HD
ATOM     35  H   UNL     1      -8.669 -13.341  14.990  0.00  0.00    +0.000 HD
ATOM     36  H   UNL     1      -8.726 -12.091  19.128  0.00  0.00    +0.000 HD
ATOM     37  H   UNL     1      -8.805  -9.745  18.414  0.00  0.00    +0.000 HD
BRANCH  31  38
ATOM     38  C   UNL     1      -8.820 -14.300  17.609  0.00  0.00    +0.000 C 
ATOM     39  N   UNL     1      -8.993 -15.303  16.698  0.00  0.00    +0.000 N 
ATOM     40  O   UNL     1      -8.766 -14.553  18.806  0.00  0.00    +0.000 OA
ATOM     41  H   UNL     1      -9.148 -15.180  15.710  0.00  0.00    +0.000 HD
ATOM     42  H   UNL     1      -9.106 -16.238  17.070  0.00  0.00    +0.000 HD
ENDBRANCH  31  38
ENDBRANCH  26  28
ENDBRANCH  21  24
ENDBRANCH   8  21
BRANCH   3  43
ATOM     43  O   UNL     1      -7.256  -2.961  22.834  0.00  0.00    +0.000 OA
ATOM     44  H   UNL     1      -6.391  -2.848  23.263  0.00  0.00    +0.000 HD
ENDBRANCH   3  43
TORSDOF 6
ENDMDL
MODEL 3
REMARK VINA RESULT:   -10.362      2.171     10.254
REMARK INTER + INTRA:         -13.755
REMARK INTER:                 -13.536
REMARK INTRA:                  -0.219
REMARK UNBOUND:                -0.364
REMARK  Name = 
REMARK  6 active torsions:
REMARK  status: ('A' for Active; 'I' for Inactive)
REMARK    1  A    between atoms: C_1  and  C_2
REMARK    2  A    between atoms: C_4  and  O_5
REMARK    3  A    between atoms: N_10  and  C_11
REMARK    4  A    between atoms: C_11  and  C_12
REMARK    5  A    between atoms: N_14  and  C_15
REMARK    6  A    between atoms: C_18  and  C_19
REMARK                            x       y       z     vdW  Elec       q    Type
REMARK                         _______ _______ _______ _____ _____    ______ ____
ROOT
ATOM      1  C   UNL     1      -9.201 -10.546  16.423  0.00  0.00    +0.000 A 
ATOM      2  C   UNL     1      -9.198 -11.887  16.976  0.00  0.00    +0.000 A 
ATOM      3  C   UNL     1      -8.904 -12.091  18.269  0.00  0.00    +0.000 A 
ATOM      4  O   UNL     1      -8.564 -11.042  19.113  0.00  0.00    +0.000 OA
ATOM      5  C   UNL     1      -8.629  -9.731  18.651  0.00  0.00    +0.000 A 
ATOM      6  C   UNL     1      -8.397  -8.709  19.491  0.00  0.00    +0.000 A 
ATOM      7  C   UNL     1      -8.511  -7.306  19.000  0.00  0.00    +0.000 A 
ATOM      8  N   UNL     1      -8.287  -6.304  19.779  0.00  0.00    +0.000 N 
ATOM      9  C   UNL     1      -8.891  -7.092  17.575  0.00  0.00    +0.000 A 
ATOM     10  C   UNL     1      -9.058  -8.135  16.756  0.00  0.00    +0.000 A 
ATOM     11  C   UNL     1      -8.960  -9.496  17.242  0.00  0.00    +0.000 A 
ATOM     12  H   UNL     1      -9.478 -12.711  16.328  0.00  0.00    +0.000 HD
ATOM     13  H   UNL     1      -8.148  -8.912  20.528  0.00  0.00    +0.000 HD
ATOM     14  H   UNL     1      -7.976  -6.484  20.741  0.00  0.00    +0.000 HD
ATOM     15  H   UNL     1      -9.020  -6.092  17.175  0.00  0.00    +0.000 HD
ATOM     16  H   UNL     1      -9.299  -7.945  15.715  0.00  0.00    +0.000 HD
ENDROOT
BRANCH   1  17
ATOM     17  C   UNL     1      -9.532 -10.419  14.959  0.00  0.00    +0.000 C 
ATOM     18  H   UNL     1     -10.133  -9.533  14.736  0.00  0.00    +0.000 HD
ATOM     19  H   UNL     1     -10.101 -11.293  14.621  0.00  0.00    +0.000 HD
ATOM     20  H   UNL     1      -8.615 -10.342  14.364  0.00  0.00    +0.000 HD
ENDBRANCH   1  17
BRANCH   8  21
ATOM     21  C   UNL     1      -8.402  -4.872  19.407  0.00  0.00    +0.000 C 
ATOM     22  H   UNL     1      -9.389  -4.687  18.985  0.00  0.00    +0.000 HD
ATOM     23  H   UNL     1      -7.611  -4.634  18.683  0.00  0.00    +0.000 HD
BRANCH  21  24
ATOM     24  C   UNL     1      -8.177  -4.058  20.643  0.00  0.00    +0.000 C 
ATOM     25  O   UNL     1      -7.307  -4.408  21.422  0.00  0.00    +0.000 OA
ATOM     26  N   UNL     1      -9.116  -3.049  20.830  0.00  0.00    +0.000 N 
ATOM     27  H   UNL     1      -9.964  -3.023  20.274  0.00  0.00    +0.000 HD
BRANCH  26  28
ATOM     28  C   UNL     1      -9.100  -2.195  21.952  0.00  0.00    +0.000 A 
ATOM     29  C   UNL     1      -8.005  -1.382  22.236  0.00  0.00    +0.000 A 
ATOM     30  C   UNL     1      -7.921  -0.692  23.441  0.00  0.00    +0.000 A 
ATOM     31  C   UNL     1      -8.950  -0.796  24.373  0.00  0.00    +0.000 A 
ATOM     32  C   UNL     1     -10.104  -1.526  24.040  0.00  0.00    +0.000 A 
ATOM     33  C   UNL     1     -10.190  -2.210  22.823  0.00  0.00    +0.000 A 
ATOM     34  H   UNL     1      -7.174  -1.275  21.545  0.00  0.00    +0.000 HD
ATOM     35  H   UNL     1      -7.028  -0.105  23.618  0.00  0.00    +0.000 HD
ATOM     36  H   UNL     1     -10.929  -1.587  24.749  0.00  0.00    +0.000 HD
ATOM     37  H   UNL     1     -11.086  -2.789  22.616  0.00  0.00    +0.000 HD
BRANCH  31  38
ATOM     38  C   UNL     1      -8.857  -0.192  25.728  0.00  0.00    +0.000 C 
ATOM     39  N   UNL     1      -8.891  -1.016  26.817  0.00  0.00    +0.000 N 
ATOM     40  O   UNL     1      -8.788   1.022  25.871  0.00  0.00    +0.000 OA
ATOM     41  H   UNL     1      -9.047  -2.011  26.797  0.00  0.00    +0.000 HD
ATOM     42  H   UNL     1      -8.890  -0.567  27.724  0.00  0.00    +0.000 HD
ENDBRANCH  31  38
ENDBRANCH  26  28
ENDBRANCH  21  24
ENDBRANCH   8  21
BRANCH   3  43
ATOM     43  O   UNL     1      -8.949 -13.348  18.828  0.00  0.00    +0.000 OA
ATOM     44  H   UNL     1      -8.041 -13.678  18.939  0.00  0.00    +0.000 HD
ENDBRANCH   3  43
TORSDOF 6
ENDMDL
MODEL 4
REMARK VINA RESULT:   -10.309      6.433     11.483
REMARK INTER + INTRA:         -13.686
REMARK INTER:                 -13.280
REMARK INTRA:                  -0.406
REMARK UNBOUND:                -0.364
REMARK  Name = 
REMARK  6 active torsions:
REMARK  status: ('A' for Active; 'I' for Inactive)
REMARK    1  A    between atoms: C_1  and  C_2
REMARK    2  A    between atoms: C_4  and  O_5
REMARK    3  A    between atoms: N_10  and  C_11
REMARK    4  A    between atoms: C_11  and  C_12
REMARK    5  A    between atoms: N_14  and  C_15
REMARK    6  A    between atoms: C_18  and  C_19
REMARK                            x       y       z     vdW  Elec       q    Type
REMARK                         _______ _______ _______ _____ _____    ______ ____
ROOT
ATOM      1  C   UNL     1      -8.887 -13.519  17.595  0.00  0.00    +0.000 A 
ATOM      2  C   UNL     1      -8.845 -14.570  16.595  0.00  0.00    +0.000 A 
ATOM      3  C   UNL     1      -8.898 -14.270  15.289  0.00  0.00    +0.000 A 
ATOM      4  O   UNL     1      -9.026 -12.960  14.846  0.00  0.00    +0.000 OA
ATOM      5  C   UNL     1      -8.992 -11.913  15.760  0.00  0.00    +0.000 A 
ATOM      6  C   UNL     1      -9.016 -10.641  15.329  0.00  0.00    +0.000 A 
ATOM      7  C   UNL     1      -8.934  -9.523  16.313  0.00  0.00    +0.000 A 
ATOM      8  N   UNL     1      -8.963  -8.293  15.932  0.00  0.00    +0.000 N 
ATOM      9  C   UNL     1      -8.822  -9.869  17.758  0.00  0.00    +0.000 A 
ATOM     10  C   UNL     1      -8.858 -11.146  18.152  0.00  0.00    +0.000 A 
ATOM     11  C   UNL     1      -8.923 -12.228  17.191  0.00  0.00    +0.000 A 
ATOM     12  H   UNL     1      -8.729 -15.595  16.931  0.00  0.00    +0.000 HD
ATOM     13  H   UNL     1      -9.073 -10.435  14.265  0.00  0.00    +0.000 HD
ATOM     14  H   UNL     1      -9.094  -8.086  14.934  0.00  0.00    +0.000 HD
ATOM     15  H   UNL     1      -8.727  -9.096  18.513  0.00  0.00    +0.000 HD
ATOM     16  H   UNL     1      -8.811 -11.364  19.214  0.00  0.00    +0.000 HD
ENDROOT
BRANCH   1  17
ATOM     17  C   UNL     1      -8.834 -13.955  19.035  0.00  0.00    +0.000 C 
ATOM     18  H   UNL     1      -8.830 -13.112  19.733  0.00  0.00    +0.000 HD
ATOM     19  H   UNL     1      -7.925 -14.538  19.223  0.00  0.00    +0.000 HD
ATOM     20  H   UNL     1      -9.705 -14.571  19.283  0.00  0.00    +0.000 HD
ENDBRANCH   1  17
BRANCH   8  21
ATOM     21  C   UNL     1      -8.858  -7.106  16.816  0.00  0.00    +0.000 C 
ATOM     22  H   UNL     1      -7.938  -6.567  16.589  0.00  0.00    +0.000 HD
ATOM     23  H   UNL     1      -8.869  -7.445  17.861  0.00  0.00    +0.000 HD
BRANCH  21  24
ATOM     24  C   UNL     1     -10.062  -6.249  16.580  0.00  0.00    +0.000 C 
ATOM     25  O   UNL     1     -11.153  -6.787  16.495  0.00  0.00    +0.000 OA
ATOM     26  N   UNL     1      -9.762  -4.913  16.334  0.00  0.00    +0.000 N 
ATOM     27  H   UNL     1      -8.809  -4.624  16.146  0.00  0.00    +0.000 HD
BRANCH  26  28
ATOM     28  C   UNL     1     -10.754  -3.951  16.053  0.00  0.00    +0.000 A 
ATOM     29  C   UNL     1     -11.043  -3.559  14.749  0.00  0.00    +0.000 A 
ATOM     30  C   UNL     1     -11.881  -2.478  14.497  0.00  0.00    +0.000 A 
ATOM     31  C   UNL     1     -12.458  -1.786  15.558  0.00  0.00    +0.000 A 
ATOM     32  C   UNL     1     -12.257  -2.251  16.868  0.00  0.00    +0.000 A 
ATOM     33  C   UNL     1     -11.421  -3.344  17.118  0.00  0.00    +0.000 A 
ATOM     34  H   UNL     1     -10.611  -4.061  13.888  0.00  0.00    +0.000 HD
ATOM     35  H   UNL     1     -12.038  -2.199  13.462  0.00  0.00    +0.000 HD
ATOM     36  H   UNL     1     -12.730  -1.735  17.704  0.00  0.00    +0.000 HD
ATOM     37  H   UNL     1     -11.266  -3.654  18.148  0.00  0.00    +0.000 HD
BRANCH  31  38
ATOM     38  C   UNL     1     -13.253  -0.545  15.358  0.00  0.00    +0.000 C 
ATOM     39  N   UNL     1     -13.765  -0.288  14.118  0.00  0.00    +0.000 N 
ATOM     40  O   UNL     1     -13.417   0.251  16.273  0.00  0.00    +0.000 OA
ATOM     41  H   UNL     1     -13.596  -0.832  13.287  0.00  0.00    +0.000 HD
ATOM     42  H   UNL     1     -14.246   0.595  14.001  0.00  0.00    +0.000 HD
ENDBRANCH  31  38
ENDBRANCH  26  28
ENDBRANCH  21  24
ENDBRANCH   8  21
BRANCH   3  43
ATOM     43  O   UNL     1      -8.804 -15.246  14.322  0.00  0.00    +0.000 OA
ATOM     44  H   UNL     1      -8.521 -14.837  13.486  0.00  0.00    +0.000 HD
ENDBRANCH   3  43
TORSDOF 6
ENDMDL
MODEL 5
REMARK VINA RESULT:    -9.961      3.178      4.565
REMARK INTER + INTRA:         -13.237
REMARK INTER:                 -12.825
REMARK INTRA:                  -0.412
REMARK UNBOUND:                -0.364
REMARK  Name = 
REMARK  6 active torsions:
REMARK  status: ('A' for Active; 'I' for Inactive)
REMARK    1  A    between atoms: C_1  and  C_2
REMARK    2  A    between atoms: C_4  and  O_5
REMARK    3  A    between atoms: N_10  and  C_11
REMARK    4  A    between atoms: C_11  and  C_12
REMARK    5  A    between atoms: N_14  and  C_15
REMARK    6  A    between atoms: C_18  and  C_19
REMARK                            x       y       z     vdW  Elec       q    Type
REMARK                         _______ _______ _______ _____ _____    ______ ____
ROOT
ATOM      1  C   UNL     1      -9.222  -1.994  20.810  0.00  0.00    +0.000 A 
ATOM      2  C   UNL     1      -8.030  -1.759  21.602  0.00  0.00    +0.000 A 
ATOM      3  C   UNL     1      -7.048  -2.672  21.643  0.00  0.00    +0.000 A 
ATOM      4  O   UNL     1      -7.145  -3.878  20.962  0.00  0.00    +0.000 OA
ATOM      5  C   UNL     1      -8.231  -4.117  20.126  0.00  0.00    +0.000 A 
ATOM      6  C   UNL     1      -8.281  -5.239  19.390  0.00  0.00    +0.000 A 
ATOM      7  C   UNL     1      -9.427  -5.467  18.463  0.00  0.00    +0.000 A 
ATOM      8  N   UNL     1      -9.507  -6.537  17.749  0.00  0.00    +0.000 N 
ATOM      9  C   UNL     1     -10.485  -4.421  18.387  0.00  0.00    +0.000 A 
ATOM     10  C   UNL     1     -10.429  -3.344  19.177  0.00  0.00    +0.000 A 
ATOM     11  C   UNL     1      -9.306  -3.120  20.066  0.00  0.00    +0.000 A 
ATOM     12  H   UNL     1      -7.938  -0.813  22.125  0.00  0.00    +0.000 HD
ATOM     13  H   UNL     1      -7.475  -5.962  19.458  0.00  0.00    +0.000 HD
ATOM     14  H   UNL     1      -8.790  -7.263  17.863  0.00  0.00    +0.000 HD
ATOM     15  H   UNL     1     -11.323  -4.521  17.706  0.00  0.00    +0.000 HD
ATOM     16  H   UNL     1     -11.233  -2.617  19.125  0.00  0.00    +0.000 HD
ENDROOT
BRANCH   1  17
ATOM     17  C   UNL     1     -10.274  -0.916  20.836  0.00  0.00    +0.000 C 
ATOM     18  H   UNL     1     -10.290  -0.364  21.780  0.00  0.00    +0.000 HD
ATOM     19  H   UNL     1     -11.269  -1.353  20.696  0.00  0.00    +0.000 HD
ATOM     20  H   UNL     1     -10.095  -0.184  20.040  0.00  0.00    +0.000 HD
ENDBRANCH   1  17
BRANCH   8  21
ATOM     21  C   UNL     1     -10.581  -6.853  16.775  0.00  0.00    +0.000 C 
ATOM     22  H   UNL     1     -10.481  -6.204  15.905  0.00  0.00    +0.000 HD
ATOM     23  H   UNL     1     -11.553  -6.708  17.266  0.00  0.00    +0.000 HD
BRANCH  21  24
ATOM     24  C   UNL     1     -10.448  -8.295  16.397  0.00  0.00    +0.000 C 
ATOM     25  O   UNL     1     -11.427  -8.876  15.959  0.00  0.00    +0.000 OA
ATOM     26  N   UNL     1      -9.221  -8.854  16.739  0.00  0.00    +0.000 N 
ATOM     27  H   UNL     1      -8.583  -8.363  17.355  0.00  0.00    +0.000 HD
BRANCH  26  28
ATOM     28  C   UNL     1      -8.911 -10.209  16.500  0.00  0.00    +0.000 A 
ATOM     29  C   UNL     1      -8.622 -10.678  15.221  0.00  0.00    +0.000 A 
ATOM     30  C   UNL     1      -8.507 -12.041  14.969  0.00  0.00    +0.000 A 
ATOM     31  C   UNL     1      -8.665 -12.954  16.008  0.00  0.00    +0.000 A 
ATOM     32  C   UNL     1      -8.845 -12.476  17.317  0.00  0.00    +0.000 A 
ATOM     33  C   UNL     1      -8.949 -11.105  17.569  0.00  0.00    +0.000 A 
ATOM     34  H   UNL     1      -8.498 -10.006  14.376  0.00  0.00    +0.000 HD
ATOM     35  H   UNL     1      -8.317 -12.345  13.947  0.00  0.00    +0.000 HD
ATOM     36  H   UNL     1      -8.937 -13.182  18.143  0.00  0.00    +0.000 HD
ATOM     37  H   UNL     1      -9.120 -10.777  18.591  0.00  0.00    +0.000 HD
BRANCH  31  38
ATOM     38  C   UNL     1      -8.686 -14.423  15.777  0.00  0.00    +0.000 C 
ATOM     39  N   UNL     1      -8.900 -15.251  16.843  0.00  0.00    +0.000 N 
ATOM     40  O   UNL     1      -8.481 -14.887  14.663  0.00  0.00    +0.000 OA
ATOM     41  H   UNL     1      -8.977 -14.963  17.805  0.00  0.00    +0.000 HD
ATOM     42  H   UNL     1      -8.844 -16.245  16.661  0.00  0.00    +0.000 HD
ENDBRANCH  31  38
ENDBRANCH  26  28
ENDBRANCH  21  24
ENDBRANCH   8  21
BRANCH   3  43
ATOM     43  O   UNL     1      -5.884  -2.447  22.344  0.00  0.00    +0.000 OA
ATOM     44  H   UNL     1      -6.107  -2.189  23.254  0.00  0.00    +0.000 HD
ENDBRANCH   3  43
TORSDOF 6
ENDMDL
MODEL 6
REMARK VINA RESULT:    -9.947      2.129     10.311
REMARK INTER + INTRA:         -13.218
REMARK INTER:                 -13.392
REMARK INTRA:                   0.174
REMARK UNBOUND:                -0.364
REMARK  Name = 
REMARK  6 active torsions:
REMARK  status: ('A' for Active; 'I' for Inactive)
REMARK    1  A    between atoms: C_1  and  C_2
REMARK    2  A    between atoms: C_4  and  O_5
REMARK    3  A    between atoms: N_10  and  C_11
REMARK    4  A    between atoms: C_11  and  C_12
REMARK    5  A    between atoms: N_14  and  C_15
REMARK    6  A    between atoms: C_18  and  C_19
REMARK                            x       y       z     vdW  Elec       q    Type
REMARK                         _______ _______ _______ _____ _____    ______ ____
ROOT
ATOM      1  C   UNL     1      -8.732 -11.995  16.148  0.00  0.00    +0.000 A 
ATOM      2  C   UNL     1      -8.595 -13.171  16.986  0.00  0.00    +0.000 A 
ATOM      3  C   UNL     1      -8.516 -13.052  18.320  0.00  0.00    +0.000 A 
ATOM      4  O   UNL     1      -8.531 -11.811  18.943  0.00  0.00    +0.000 OA
ATOM      5  C   UNL     1      -8.741 -10.660  18.191  0.00  0.00    +0.000 A 
ATOM      6  C   UNL     1      -8.855  -9.468  18.800  0.00  0.00    +0.000 A 
ATOM      7  C   UNL     1      -9.124  -8.245  17.991  0.00  0.00    +0.000 A 
ATOM      8  N   UNL     1      -9.231  -7.086  18.545  0.00  0.00    +0.000 N 
ATOM      9  C   UNL     1      -9.262  -8.398  16.515  0.00  0.00    +0.000 A 
ATOM     10  C   UNL     1      -9.085  -9.592  15.940  0.00  0.00    +0.000 A 
ATOM     11  C   UNL     1      -8.839 -10.780  16.732  0.00  0.00    +0.000 A 
ATOM     12  H   UNL     1      -8.597 -14.146  16.510  0.00  0.00    +0.000 HD
ATOM     13  H   UNL     1      -8.773  -9.407  19.881  0.00  0.00    +0.000 HD
ATOM     14  H   UNL     1      -9.079  -7.006  19.558  0.00  0.00    +0.000 HD
ATOM     15  H   UNL     1      -9.489  -7.546  15.883  0.00  0.00    +0.000 HD
ATOM     16  H   UNL     1      -9.156  -9.664  14.859  0.00  0.00    +0.000 HD
ENDROOT
BRANCH   1  17
ATOM     17  C   UNL     1      -8.801 -12.229  14.662  0.00  0.00    +0.000 C 
ATOM     18  H   UNL     1      -9.532 -12.995  14.387  0.00  0.00    +0.000 HD
ATOM     19  H   UNL     1      -7.826 -12.558  14.284  0.00  0.00    +0.000 HD
ATOM     20  H   UNL     1      -9.089 -11.309  14.141  0.00  0.00    +0.000 HD
ENDBRANCH   1  17
BRANCH   8  21
ATOM     21  C   UNL     1      -9.527  -5.812  17.844  0.00  0.00    +0.000 C 
ATOM     22  H   UNL     1     -10.473  -5.904  17.312  0.00  0.00    +0.000 HD
ATOM     23  H   UNL     1      -8.703  -5.595  17.150  0.00  0.00    +0.000 HD
BRANCH  21  24
ATOM     24  C   UNL     1      -9.583  -4.726  18.872  0.00  0.00    +0.000 C 
ATOM     25  O   UNL     1     -10.482  -3.904  18.804  0.00  0.00    +0.000 OA
ATOM     26  N   UNL     1      -8.483  -4.699  19.723  0.00  0.00    +0.000 N 
ATOM     27  H   UNL     1      -7.656  -5.248  19.514  0.00  0.00    +0.000 HD
BRANCH  26  28
ATOM     28  C   UNL     1      -8.329  -3.731  20.736  0.00  0.00    +0.000 A 
ATOM     29  C   UNL     1      -7.744  -4.042  21.961  0.00  0.00    +0.000 A 
ATOM     30  C   UNL     1      -7.772  -3.136  23.017  0.00  0.00    +0.000 A 
ATOM     31  C   UNL     1      -8.374  -1.892  22.847  0.00  0.00    +0.000 A 
ATOM     32  C   UNL     1      -8.864  -1.536  21.579  0.00  0.00    +0.000 A 
ATOM     33  C   UNL     1      -8.825  -2.446  20.517  0.00  0.00    +0.000 A 
ATOM     34  H   UNL     1      -7.270  -5.002  22.145  0.00  0.00    +0.000 HD
ATOM     35  H   UNL     1      -7.332  -3.450  23.955  0.00  0.00    +0.000 HD
ATOM     36  H   UNL     1      -9.308  -0.553  21.427  0.00  0.00    +0.000 HD
ATOM     37  H   UNL     1      -9.243  -2.144  19.560  0.00  0.00    +0.000 HD
BRANCH  31  38
ATOM     38  C   UNL     1      -8.552  -0.937  23.972  0.00  0.00    +0.000 C 
ATOM     39  N   UNL     1      -8.229   0.376  23.775  0.00  0.00    +0.000 N 
ATOM     40  O   UNL     1      -8.946  -1.321  25.066  0.00  0.00    +0.000 OA
ATOM     41  H   UNL     1      -7.805   0.759  22.945  0.00  0.00    +0.000 HD
ATOM     42  H   UNL     1      -8.301   0.985  24.580  0.00  0.00    +0.000 HD
ENDBRANCH  31  38
ENDBRANCH  26  28
ENDBRANCH  21  24
ENDBRANCH   8  21
BRANCH   3  43
ATOM     43  O   UNL     1      -8.440 -14.157  19.139  0.00  0.00    +0.000 OA
ATOM     44  H   UNL     1      -8.590 -14.956  18.606  0.00  0.00    +0.000 HD
ENDBRANCH   3  43
TORSDOF 6
ENDMDL
MODEL 7
REMARK VINA RESULT:    -9.901      2.609     10.634
REMARK INTER + INTRA:         -13.159
REMARK INTER:                 -12.796
REMARK INTRA:                  -0.364
REMARK UNBOUND:                -0.364
REMARK  Name = 
REMARK  6 active torsions:
REMARK  status: ('A' for Active; 'I' for Inactive)
REMARK    1  A    between atoms: C_1  and  C_2
REMARK    2  A    between atoms: C_4  and  O_5
REMARK    3  A    between atoms: N_10  and  C_11
REMARK    4  A    between atoms: C_11  and  C_12
REMARK    5  A    between atoms: N_14  and  C_15
REMARK    6  A    between atoms: C_18  and  C_19
REMARK                            x       y       z     vdW  Elec       q    Type
REMARK                         _______ _______ _______ _____ _____    ______ ____
ROOT
ATOM      1  C   UNL     1      -9.215 -10.572  16.956  0.00  0.00    +0.000 A 
ATOM      2  C   UNL     1      -9.385 -10.657  15.518  0.00  0.00    +0.000 A 
ATOM      3  C   UNL     1      -9.371  -9.549  14.763  0.00  0.00    +0.000 A 
ATOM      4  O   UNL     1      -9.225  -8.287  15.324  0.00  0.00    +0.000 OA
ATOM      5  C   UNL     1      -8.980  -8.158  16.687  0.00  0.00    +0.000 A 
ATOM      6  C   UNL     1      -8.741  -6.947  17.216  0.00  0.00    +0.000 A 
ATOM      7  C   UNL     1      -8.435  -6.821  18.671  0.00  0.00    +0.000 A 
ATOM      8  N   UNL     1      -8.209  -5.673  19.210  0.00  0.00    +0.000 N 
ATOM      9  C   UNL     1      -8.402  -8.066  19.489  0.00  0.00    +0.000 A 
ATOM     10  C   UNL     1      -8.701  -9.246  18.937  0.00  0.00    +0.000 A 
ATOM     11  C   UNL     1      -8.984  -9.364  17.521  0.00  0.00    +0.000 A 
ATOM     12  H   UNL     1      -9.483 -11.641  15.069  0.00  0.00    +0.000 HD
ATOM     13  H   UNL     1      -8.750  -6.070  16.577  0.00  0.00    +0.000 HD
ATOM     14  H   UNL     1      -8.291  -4.829  18.631  0.00  0.00    +0.000 HD
ATOM     15  H   UNL     1      -8.154  -8.035  20.544  0.00  0.00    +0.000 HD
ATOM     16  H   UNL     1      -8.704 -10.130  19.567  0.00  0.00    +0.000 HD
ENDROOT
BRANCH   1  17
ATOM     17  C   UNL     1      -9.258 -11.869  17.720  0.00  0.00    +0.000 C 
ATOM     18  H   UNL     1      -9.996 -12.571  17.321  0.00  0.00    +0.000 HD
ATOM     19  H   UNL     1      -9.517 -11.684  18.769  0.00  0.00    +0.000 HD
ATOM     20  H   UNL     1      -8.285 -12.371  17.681  0.00  0.00    +0.000 HD
ENDBRANCH   1  17
BRANCH   8  21
ATOM     21  C   UNL     1      -7.866  -5.434  20.634  0.00  0.00    +0.000 C 
ATOM     22  H   UNL     1      -6.789  -5.533  20.767  0.00  0.00    +0.000 HD
ATOM     23  H   UNL     1      -8.409  -6.163  21.252  0.00  0.00    +0.000 HD
BRANCH  21  24
ATOM     24  C   UNL     1      -8.335  -4.060  20.995  0.00  0.00    +0.000 C 
ATOM     25  O   UNL     1      -8.540  -3.259  20.098  0.00  0.00    +0.000 OA
ATOM     26  N   UNL     1      -8.342  -3.809  22.363  0.00  0.00    +0.000 N 
ATOM     27  H   UNL     1      -7.884  -4.444  23.007  0.00  0.00    +0.000 HD
BRANCH  26  28
ATOM     28  C   UNL     1      -8.717  -2.562  22.905  0.00  0.00    +0.000 A 
ATOM     29  C   UNL     1     -10.054  -2.211  23.073  0.00  0.00    +0.000 A 
ATOM     30  C   UNL     1     -10.413  -0.914  23.426  0.00  0.00    +0.000 A 
ATOM     31  C   UNL     1      -9.426   0.046  23.634  0.00  0.00    +0.000 A 
ATOM     32  C   UNL     1      -8.076  -0.337  23.575  0.00  0.00    +0.000 A 
ATOM     33  C   UNL     1      -7.718  -1.644  23.230  0.00  0.00    +0.000 A 
ATOM     34  H   UNL     1     -10.860  -2.922  22.914  0.00  0.00    +0.000 HD
ATOM     35  H   UNL     1     -11.470  -0.694  23.506  0.00  0.00    +0.000 HD
ATOM     36  H   UNL     1      -7.296   0.400  23.768  0.00  0.00    +0.000 HD
ATOM     37  H   UNL     1      -6.662  -1.893  23.164  0.00  0.00    +0.000 HD
BRANCH  31  38
ATOM     38  C   UNL     1      -9.751   1.476  23.882  0.00  0.00    +0.000 C 
ATOM     39  N   UNL     1     -10.389   2.182  22.902  0.00  0.00    +0.000 N 
ATOM     40  O   UNL     1      -9.422   2.023  24.926  0.00  0.00    +0.000 OA
ATOM     41  H   UNL     1     -10.605   1.844  21.978  0.00  0.00    +0.000 HD
ATOM     42  H   UNL     1     -10.536   3.168  23.078  0.00  0.00    +0.000 HD
ENDBRANCH  31  38
ENDBRANCH  26  28
ENDBRANCH  21  24
ENDBRANCH   8  21
BRANCH   3  43
ATOM     43  O   UNL     1      -9.475  -9.611  13.391  0.00  0.00    +0.000 OA
ATOM     44  H   UNL     1     -10.099 -10.316  13.152  0.00  0.00    +0.000 HD
ENDBRANCH   3  43
TORSDOF 6
ENDMDL
MODEL 8
REMARK VINA RESULT:    -9.854      6.991      8.272
REMARK INTER + INTRA:         -13.098
REMARK INTER:                 -12.744
REMARK INTRA:                  -0.354
REMARK UNBOUND:                -0.364
REMARK  Name = 
REMARK  6 active torsions:
REMARK  status: ('A' for Active; 'I' for Inactive)
REMARK    1  A    between atoms: C_1  and  C_2
REMARK    2  A    between atoms: C_4  and  O_5
REMARK    3  A    between atoms: N_10  and  C_11
REMARK    4  A    between atoms: C_11  and  C_12
REMARK    5  A    between atoms: N_14  and  C_15
REMARK    6  A    between atoms: C_18  and  C_19
REMARK                            x       y       z     vdW  Elec       q    Type
REMARK                         _______ _______ _______ _____ _____    ______ ____
ROOT
ATOM      1  C   UNL     1     -12.732  -0.999  15.241  0.00  0.00    +0.000 A 
ATOM      2  C   UNL     1     -12.957  -0.427  13.927  0.00  0.00    +0.000 A 
ATOM      3  C   UNL     1     -12.623  -1.107  12.821  0.00  0.00    +0.000 A 
ATOM      4  O   UNL     1     -12.028  -2.360  12.888  0.00  0.00    +0.000 OA
ATOM      5  C   UNL     1     -11.864  -2.985  14.120  0.00  0.00    +0.000 A 
ATOM      6  C   UNL     1     -11.380  -4.237  14.181  0.00  0.00    +0.000 A 
ATOM      7  C   UNL     1     -11.249  -4.916  15.502  0.00  0.00    +0.000 A 
ATOM      8  N   UNL     1     -10.780  -6.113  15.595  0.00  0.00    +0.000 N 
ATOM      9  C   UNL     1     -11.672  -4.169  16.719  0.00  0.00    +0.000 A 
ATOM     10  C   UNL     1     -12.096  -2.905  16.623  0.00  0.00    +0.000 A 
ATOM     11  C   UNL     1     -12.235  -2.254  15.335  0.00  0.00    +0.000 A 
ATOM     12  H   UNL     1     -13.436   0.545  13.864  0.00  0.00    +0.000 HD
ATOM     13  H   UNL     1     -11.108  -4.753  13.266  0.00  0.00    +0.000 HD
ATOM     14  H   UNL     1     -10.448  -6.582  14.743  0.00  0.00    +0.000 HD
ATOM     15  H   UNL     1     -11.628  -4.627  17.701  0.00  0.00    +0.000 HD
ATOM     16  H   UNL     1     -12.363  -2.374  17.531  0.00  0.00    +0.000 HD
ENDROOT
BRANCH   1  17
ATOM     17  C   UNL     1     -13.128  -0.154  16.423  0.00  0.00    +0.000 C 
ATOM     18  H   UNL     1     -12.291   0.051  17.097  0.00  0.00    +0.000 HD
ATOM     19  H   UNL     1     -13.903  -0.661  17.010  0.00  0.00    +0.000 HD
ATOM     20  H   UNL     1     -13.515   0.815  16.090  0.00  0.00    +0.000 HD
ENDBRANCH   1  17
BRANCH   8  21
ATOM     21  C   UNL     1     -10.635  -6.895  16.848  0.00  0.00    +0.000 C 
ATOM     22  H   UNL     1     -11.500  -6.716  17.487  0.00  0.00    +0.000 HD
ATOM     23  H   UNL     1      -9.705  -6.587  17.346  0.00  0.00    +0.000 HD
BRANCH  21  24
ATOM     24  C   UNL     1     -10.522  -8.340  16.477  0.00  0.00    +0.000 C 
ATOM     25  O   UNL     1     -11.529  -8.935  16.134  0.00  0.00    +0.000 OA
ATOM     26  N   UNL     1      -9.264  -8.885  16.715  0.00  0.00    +0.000 N 
ATOM     27  H   UNL     1      -8.579  -8.380  17.266  0.00  0.00    +0.000 HD
BRANCH  26  28
ATOM     28  C   UNL     1      -8.963 -10.240  16.466  0.00  0.00    +0.000 A 
ATOM     29  C   UNL     1      -8.672 -10.699  15.184  0.00  0.00    +0.000 A 
ATOM     30  C   UNL     1      -8.567 -12.062  14.920  0.00  0.00    +0.000 A 
ATOM     31  C   UNL     1      -8.736 -12.982  15.951  0.00  0.00    +0.000 A 
ATOM     32  C   UNL     1      -8.918 -12.514  17.263  0.00  0.00    +0.000 A 
ATOM     33  C   UNL     1      -9.013 -11.144  17.527  0.00  0.00    +0.000 A 
ATOM     34  H   UNL     1      -8.540 -10.021  14.346  0.00  0.00    +0.000 HD
ATOM     35  H   UNL     1      -8.374 -12.358  13.897  0.00  0.00    +0.000 HD
ATOM     36  H   UNL     1      -9.019 -13.227  18.082  0.00  0.00    +0.000 HD
ATOM     37  H   UNL     1      -9.185 -10.824  18.551  0.00  0.00    +0.000 HD
BRANCH  31  38
ATOM     38  C   UNL     1      -8.767 -14.448  15.707  0.00  0.00    +0.000 C 
ATOM     39  N   UNL     1      -8.966 -15.285  16.769  0.00  0.00    +0.000 N 
ATOM     40  O   UNL     1      -8.582 -14.903  14.586  0.00  0.00    +0.000 OA
ATOM     41  H   UNL     1      -9.026 -15.006  17.735  0.00  0.00    +0.000 HD
ATOM     42  H   UNL     1      -8.918 -16.278  16.577  0.00  0.00    +0.000 HD
ENDBRANCH  31  38
ENDBRANCH  26  28
ENDBRANCH  21  24
ENDBRANCH   8  21
BRANCH   3  43
ATOM     43  O   UNL     1     -12.878  -0.607  11.563  0.00  0.00    +0.000 OA
ATOM     44  H   UNL     1     -12.204  -0.942  10.947  0.00  0.00    +0.000 HD
ENDBRANCH   3  43
TORSDOF 6
ENDMDL
MODEL 9
REMARK VINA RESULT:    -9.822      3.944     10.590
REMARK INTER + INTRA:         -13.057
REMARK INTER:                 -12.759
REMARK INTRA:                  -0.298
REMARK UNBOUND:                -0.364
REMARK  Name = 
REMARK  6 active torsions:
REMARK  status: ('A' for Active; 'I' for Inactive)
REMARK    1  A    between atoms: C_1  and  C_2
REMARK    2  A    between atoms: C_4  and  O_5
REMARK    3  A    between atoms: N_10  and  C_11
REMARK    4  A    between atoms: C_11  and  C_12
REMARK    5  A    between atoms: N_14  and  C_15
REMARK    6  A    between atoms: C_18  and  C_19
REMARK                            x       y       z     vdW  Elec       q    Type
REMARK                         _______ _______ _______ _____ _____    ______ ____
ROOT
ATOM      1  C   UNL     1      -8.639 -13.022  15.998  0.00  0.00    +0.000 A 
ATOM      2  C   UNL     1      -8.667 -13.880  17.168  0.00  0.00    +0.000 A 
ATOM      3  C   UNL     1      -8.785 -13.354  18.396  0.00  0.00    +0.000 A 
ATOM      4  O   UNL     1      -8.853 -11.981  18.598  0.00  0.00    +0.000 OA
ATOM      5  C   UNL     1      -8.910 -11.122  17.505  0.00  0.00    +0.000 A 
ATOM      6  C   UNL     1      -9.076  -9.803  17.694  0.00  0.00    +0.000 A 
ATOM      7  C   UNL     1      -9.180  -8.893  16.517  0.00  0.00    +0.000 A 
ATOM      8  N   UNL     1      -9.331  -7.622  16.665  0.00  0.00    +0.000 N 
ATOM      9  C   UNL     1      -9.101  -9.496  15.157  0.00  0.00    +0.000 A 
ATOM     10  C   UNL     1      -8.879 -10.806  15.011  0.00  0.00    +0.000 A 
ATOM     11  C   UNL     1      -8.792 -11.688  16.157  0.00  0.00    +0.000 A 
ATOM     12  H   UNL     1      -8.630 -14.954  17.019  0.00  0.00    +0.000 HD
ATOM     13  H   UNL     1      -9.155  -9.410  18.703  0.00  0.00    +0.000 HD
ATOM     14  H   UNL     1      -9.330  -7.230  17.615  0.00  0.00    +0.000 HD
ATOM     15  H   UNL     1      -9.203  -8.885  14.267  0.00  0.00    +0.000 HD
ATOM     16  H   UNL     1      -8.789 -11.210  14.007  0.00  0.00    +0.000 HD
ENDROOT
BRANCH   1  17
ATOM     17  C   UNL     1      -8.492 -13.704  14.664  0.00  0.00    +0.000 C 
ATOM     18  H   UNL     1      -9.454 -13.951  14.205  0.00  0.00    +0.000 HD
ATOM     19  H   UNL     1      -7.934 -14.642  14.775  0.00  0.00    +0.000 HD
ATOM     20  H   UNL     1      -7.957 -13.058  13.959  0.00  0.00    +0.000 HD
ENDBRANCH   1  17
BRANCH   8  21
ATOM     21  C   UNL     1      -9.477  -6.630  15.571  0.00  0.00    +0.000 C 
ATOM     22  H   UNL     1     -10.203  -6.998  14.846  0.00  0.00    +0.000 HD
ATOM     23  H   UNL     1      -8.495  -6.478  15.103  0.00  0.00    +0.000 HD
BRANCH  21  24
ATOM     24  C   UNL     1      -9.921  -5.337  16.179  0.00  0.00    +0.000 C 
ATOM     25  O   UNL     1     -10.252  -4.427  15.438  0.00  0.00    +0.000 OA
ATOM     26  N   UNL     1      -9.759  -5.280  17.559  0.00  0.00    +0.000 N 
ATOM     27  H   UNL     1      -9.212  -5.983  18.044  0.00  0.00    +0.000 HD
BRANCH  26  28
ATOM     28  C   UNL     1     -10.084  -4.136  18.316  0.00  0.00    +0.000 A 
ATOM     29  C   UNL     1      -9.121  -3.445  19.046  0.00  0.00    +0.000 A 
ATOM     30  C   UNL     1      -9.484  -2.439  19.937  0.00  0.00    +0.000 A 
ATOM     31  C   UNL     1     -10.826  -2.102  20.091  0.00  0.00    +0.000 A 
ATOM     32  C   UNL     1     -11.785  -2.721  19.273  0.00  0.00    +0.000 A 
ATOM     33  C   UNL     1     -11.416  -3.724  18.371  0.00  0.00    +0.000 A 
ATOM     34  H   UNL     1      -8.062  -3.677  18.967  0.00  0.00    +0.000 HD
ATOM     35  H   UNL     1      -8.692  -1.963  20.501  0.00  0.00    +0.000 HD
ATOM     36  H   UNL     1     -12.835  -2.440  19.363  0.00  0.00    +0.000 HD
ATOM     37  H   UNL     1     -12.193  -4.201  17.779  0.00  0.00    +0.000 HD
BRANCH  31  38
ATOM     38  C   UNL     1     -11.286  -1.132  21.120  0.00  0.00    +0.000 C 
ATOM     39  N   UNL     1     -12.161  -1.559  22.078  0.00  0.00    +0.000 N 
ATOM     40  O   UNL     1     -10.919   0.036  21.091  0.00  0.00    +0.000 OA
ATOM     41  H   UNL     1     -12.592  -2.469  22.118  0.00  0.00    +0.000 HD
ATOM     42  H   UNL     1     -12.503  -0.858  22.723  0.00  0.00    +0.000 HD
ENDBRANCH  31  38
ENDBRANCH  26  28
ENDBRANCH  21  24
ENDBRANCH   8  21
BRANCH   3  43
ATOM     43  O   UNL     1      -8.869 -14.151  19.516  0.00  0.00    +0.000 OA
ATOM     44  H   UNL     1      -9.646 -14.729  19.436  0.00  0.00    +0.000 HD
ENDBRANCH   3  43
TORSDOF 6
ENDMDL
