REMARK  Name = 
REMARK  4 active torsions:
REMARK  status: ('A' for Active; 'I' for Inactive)
REMARK    1  A    between atoms: C_2  and  C_10
REMARK    2  A    between atoms: N_3  and  C_4
REMARK    3  A    between atoms: C_4  and  C_5
REMARK    4  A    between atoms: C_13  and  N_14
REMARK                            x       y       z     vdW  Elec       q    Type
REMARK                         _______ _______ _______ _____ _____    ______ ____
ROOT
ATOM      1  C   UNL     1       2.629  -0.371  -0.271  0.00  0.00    +0.000 A 
ATOM      2  C   UNL     1       2.672   0.799   0.501  0.00  0.00    +0.000 A 
ATOM      3  C   UNL     1       1.500   1.432   0.890  0.00  0.00    +0.000 A 
ATOM      4  C   UNL     1       0.269   0.929   0.472  0.00  0.00    +0.000 A 
ATOM      5  C   UNL     1       0.207  -0.254  -0.274  0.00  0.00    +0.000 A 
ATOM      6  C   UNL     1       1.399  -0.909  -0.629  0.00  0.00    +0.000 A 
ATOM      7  H   UNL     1       3.625   1.239   0.795  0.00  0.00    +0.000 HD
ATOM      8  H   UNL     1       1.564   2.339   1.477  0.00  0.00    +0.000 HD
ATOM      9  H   UNL     1      -0.751  -0.677  -0.558  0.00  0.00    +0.000 HD
ATOM     10  H   UNL     1       1.316  -1.844  -1.187  0.00  0.00    +0.000 HD
ENDROOT
BRANCH   4  11
ATOM     11  N   UNL     1      -0.855   1.658   0.879  0.00  0.00    +0.000 N 
ATOM     12  C   UNL     1      -1.959   1.891   0.090  0.00  0.00    +0.000 C 
ATOM     13  O   UNL     1      -1.923   1.671  -1.123  0.00  0.00    +0.000 OA
ATOM     14  N   UNL     1      -3.085   2.403   0.794  0.00  0.00    +0.000 N 
ATOM     15  C   UNL     1      -3.036   2.605   2.278  0.00  0.00    +0.000 C 
ATOM     16  C   UNL     1      -3.535   3.936   2.851  0.00  0.00    +0.000 C 
ATOM     17  C   UNL     1      -5.043   4.066   2.862  0.00  0.00    +0.000 C 
ATOM     18  C   UNL     1      -5.557   4.053   1.446  0.00  0.00    +0.000 C 
ATOM     19  C   UNL     1      -5.560   2.668   0.863  0.00  0.00    +0.000 A 
ATOM     20  C   UNL     1      -6.773   1.967   0.817  0.00  0.00    +0.000 A 
ATOM     21  C   UNL     1      -6.921   0.877  -0.028  0.00  0.00    +0.000 A 
ATOM     22  C   UNL     1      -5.882   0.543  -0.882  0.00  0.00    +0.000 A 
ATOM     23  C   UNL     1      -4.636   1.155  -0.731  0.00  0.00    +0.000 A 
ATOM     24  C   UNL     1      -4.417   2.126   0.260  0.00  0.00    +0.000 A 
ATOM     25  H   UNL     1      -0.640   2.421   1.498  0.00  0.00    +0.000 HD
ATOM     26  H   UNL     1      -2.012   2.543   2.646  0.00  0.00    +0.000 HD
ATOM     27  H   UNL     1      -3.544   1.754   2.750  0.00  0.00    +0.000 HD
ATOM     28  H   UNL     1      -3.197   4.009   3.892  0.00  0.00    +0.000 HD
ATOM     29  H   UNL     1      -3.079   4.779   2.317  0.00  0.00    +0.000 HD
ATOM     30  H   UNL     1      -5.320   5.014   3.339  0.00  0.00    +0.000 HD
ATOM     31  H   UNL     1      -5.500   3.263   3.454  0.00  0.00    +0.000 HD
ATOM     32  H   UNL     1      -4.956   4.716   0.804  0.00  0.00    +0.000 HD
ATOM     33  H   UNL     1      -6.572   4.470   1.406  0.00  0.00    +0.000 HD
ATOM     34  H   UNL     1      -7.614   2.293   1.423  0.00  0.00    +0.000 HD
ATOM     35  H   UNL     1      -7.856   0.329  -0.060  0.00  0.00    +0.000 HD
ATOM     36  H   UNL     1      -6.012  -0.231  -1.632  0.00  0.00    +0.000 HD
ATOM     37  H   UNL     1      -3.849   0.789  -1.380  0.00  0.00    +0.000 HD
ENDBRANCH   4  11
BRANCH   1  39
ATOM     38  O   UNL     1       4.976  -0.537  -0.089  0.00  0.00    +0.000 OA
ATOM     39  C   UNL     1       3.957  -0.950  -0.634  0.00  0.00    +0.000 C 
ATOM     40  N   UNL     1       3.985  -1.914  -1.617  0.00  0.00    +0.000 N 
ATOM     41  H   UNL     1       3.149  -2.171  -2.121  0.00  0.00    +0.000 HD
BRANCH  40  42
ATOM     42  C   UNL     1       5.260  -2.398  -2.113  0.00  0.00    +0.000 C 
ATOM     43  H   UNL     1       5.929  -1.540  -2.255  0.00  0.00    +0.000 HD
ATOM     44  H   UNL     1       5.090  -2.817  -3.111  0.00  0.00    +0.000 HD
BRANCH  42  45
ATOM     45  C   UNL     1       5.945  -3.420  -1.191  0.00  0.00    +0.000 C 
ATOM     46  C   UNL     1       5.163  -4.718  -1.037  0.00  0.00    +0.000 C 
ATOM     47  C   UNL     1       5.643  -5.530  -2.212  0.00  0.00    +0.000 C 
ATOM     48  C   UNL     1       7.097  -5.125  -2.309  0.00  0.00    +0.000 C 
ATOM     49  O   UNL     1       7.203  -3.794  -1.792  0.00  0.00    +0.000 OA
ATOM     50  H   UNL     1       6.147  -2.972  -0.212  0.00  0.00    +0.000 HD
ATOM     51  H   UNL     1       4.077  -4.589  -1.011  0.00  0.00    +0.000 HD
ATOM     52  H   UNL     1       5.463  -5.218  -0.108  0.00  0.00    +0.000 HD
ATOM     53  H   UNL     1       5.108  -5.231  -3.121  0.00  0.00    +0.000 HD
ATOM     54  H   UNL     1       5.511  -6.608  -2.084  0.00  0.00    +0.000 HD
ATOM     55  H   UNL     1       7.469  -5.147  -3.338  0.00  0.00    +0.000 HD
ATOM     56  H   UNL     1       7.733  -5.773  -1.696  0.00  0.00    +0.000 HD
ENDBRANCH  42  45
ENDBRANCH  40  42
ENDBRANCH   1  39
TORSDOF 4
