
 OpenBabel01112423143D

 54 57  0  0  1  0  0  0  0  0999 V2000
    5.9358    2.3857   -2.0089 C   0  0  0  0  0  0  0  0  0  0  0  0
    5.8692    1.7982   -0.7160 O   0  0  0  0  0  0  0  0  0  0  0  0
    4.5361    1.3992   -0.3888 C   0  0  0  0  0  0  0  0  0  0  0  0
    4.4935    0.7673    1.0058 C   0  0  0  0  0  0  0  0  0  0  0  0
    4.9093    1.6312    2.1039 N   0  0  0  0  0  0  0  0  0  0  0  0
    5.4741    1.1279    3.2796 C   0  0  0  0  0  0  0  0  0  0  0  0
    5.7320   -0.0269    3.5678 O   0  0  0  0  0  0  0  0  0  0  0  0
    5.6499    2.2803    4.0804 C   0  0  0  0  0  0  0  0  0  0  0  0
    6.1200    2.6069    5.2881 N   0  0  0  0  0  0  0  0  0  0  0  0
    6.0403    3.9396    5.5087 N   0  0  0  0  0  0  0  0  0  0  0  0
    5.4158    4.4611    4.4222 C   0  0  0  0  0  0  0  0  0  0  0  0
    5.0729    5.8963    4.3229 C   0  0  0  0  0  0  0  0  0  0  0  0
    4.6698    6.6730    5.4405 C   0  0  0  0  0  0  0  0  0  0  0  0
    4.5981    6.2061    6.8730 C   0  0  0  0  0  0  0  0  0  0  0  0
    4.2769    8.0209    5.2501 C   0  0  0  0  0  0  0  0  0  0  0  0
    4.2890    8.6272    3.9945 C   0  0  0  0  0  0  0  0  0  0  0  0
    3.8662   10.0551    3.8220 C   0  0  0  0  0  0  0  0  0  0  0  0
    4.7355    7.8857    2.9052 C   0  0  0  0  0  0  0  0  0  0  0  0
    5.1299    6.5508    3.0709 C   0  0  0  0  0  0  0  0  0  0  0  0
    5.6112    5.9018    1.9600 O   0  0  0  0  0  0  0  0  0  0  0  0
    5.1825    3.4189    3.4938 C   0  0  0  0  0  0  0  0  0  0  0  0
    4.6325    3.0977    2.1539 C   0  0  2  0  0  0  0  0  0  0  0  0
    3.1577    3.4354    2.1588 C   0  0  0  0  0  0  0  0  0  0  0  0
    2.6601    4.3551    1.2211 C   0  0  0  0  0  0  0  0  0  0  0  0
    1.3025    4.6793    1.1825 C   0  0  0  0  0  0  0  0  0  0  0  0
    0.4098    4.0932    2.0838 C   0  0  0  0  0  0  0  0  0  0  0  0
   -1.0479    4.4453    2.0714 C   0  0  0  0  0  0  0  0  0  0  0  0
    0.8935    3.1748    3.0200 C   0  0  0  0  0  0  0  0  0  0  0  0
    2.2495    2.8433    3.0521 C   0  0  0  0  0  0  0  0  0  0  0  0
    6.9668    2.6980   -2.1956 H   0  0  0  0  0  0  0  0  0  0  0  0
    5.2898    3.2677   -2.0622 H   0  0  0  0  0  0  0  0  0  0  0  0
    5.6454    1.6602   -2.7750 H   0  0  0  0  0  0  0  0  0  0  0  0
    4.1936    0.6620   -1.1245 H   0  0  0  0  0  0  0  0  0  0  0  0
    3.8746    2.2685   -0.4450 H   0  0  0  0  0  0  0  0  0  0  0  0
    5.1316   -0.1233    1.0237 H   0  0  0  0  0  0  0  0  0  0  0  0
    3.4711    0.4400    1.2251 H   0  0  0  0  0  0  0  0  0  0  0  0
    6.5053    2.0069    6.0105 H   0  0  0  0  0  0  0  0  0  0  0  0
    4.9697    5.2045    7.0667 H   0  0  0  0  0  0  0  0  0  0  0  0
    3.5600    6.2344    7.2202 H   0  0  0  0  0  0  0  0  0  0  0  0
    5.1930    6.8817    7.5009 H   0  0  0  0  0  0  0  0  0  0  0  0
    3.9526    8.6003    6.1147 H   0  0  0  0  0  0  0  0  0  0  0  0
    3.4410   10.4624    4.7455 H   0  0  0  0  0  0  0  0  0  0  0  0
    3.0998   10.1328    3.0438 H   0  0  0  0  0  0  0  0  0  0  0  0
    4.7268   10.6713    3.5437 H   0  0  0  0  0  0  0  0  0  0  0  0
    4.7697    8.3544    1.9257 H   0  0  0  0  0  0  0  0  0  0  0  0
    5.8182    6.5641    1.2807 H   0  0  0  0  0  0  0  0  0  0  0  0
    5.1904    3.5682    1.3421 H   0  0  0  0  0  0  0  0  0  0  0  0
    3.3348    4.8273    0.5104 H   0  0  0  0  0  0  0  0  0  0  0  0
    0.9491    5.3973    0.4462 H   0  0  0  0  0  0  0  0  0  0  0  0
   -1.2877    5.1296    1.2552 H   0  0  0  0  0  0  0  0  0  0  0  0
   -1.3268    4.9257    3.0139 H   0  0  0  0  0  0  0  0  0  0  0  0
   -1.6517    3.5400    1.9377 H   0  0  0  0  0  0  0  0  0  0  0  0
    0.2177    2.7117    3.7350 H   0  0  0  0  0  0  0  0  0  0  0  0
    2.5916    2.1248    3.7933 H   0  0  0  0  0  0  0  0  0  0  0  0
  1  2  1  0  0  0  0
  1 30  1  0  0  0  0
  1 31  1  0  0  0  0
  1 32  1  0  0  0  0
  2  3  1  0  0  0  0
  3  4  1  0  0  0  0
  3 33  1  0  0  0  0
  3 34  1  0  0  0  0
  4  5  1  0  0  0  0
  4 35  1  0  0  0  0
  4 36  1  0  0  0  0
  5  6  1  0  0  0  0
  5 22  1  0  0  0  0
  6  7  2  0  0  0  0
  6  8  1  0  0  0  0
  8  9  1  0  0  0  0
  8 21  2  0  0  0  0
  9 10  1  0  0  0  0
  9 37  1  0  0  0  0
 10 11  2  0  0  0  0
 11 12  1  0  0  0  0
 11 21  1  0  0  0  0
 12 13  1  0  0  0  0
 12 19  2  0  0  0  0
 13 14  1  0  0  0  0
 13 15  2  0  0  0  0
 14 38  1  0  0  0  0
 14 39  1  0  0  0  0
 14 40  1  0  0  0  0
 15 16  1  0  0  0  0
 15 41  1  0  0  0  0
 16 17  1  0  0  0  0
 16 18  2  0  0  0  0
 17 42  1  0  0  0  0
 17 43  1  0  0  0  0
 17 44  1  0  0  0  0
 18 19  1  0  0  0  0
 18 45  1  0  0  0  0
 19 20  1  0  0  0  0
 20 46  1  0  0  0  0
 21 22  1  0  0  0  0
 22 23  1  0  0  0  0
 22 47  1  6  0  0  0
 23 24  1  0  0  0  0
 23 29  2  0  0  0  0
 24 25  2  0  0  0  0
 24 48  1  0  0  0  0
 25 26  1  0  0  0  0
 25 49  1  0  0  0  0
 26 27  1  0  0  0  0
 26 28  2  0  0  0  0
 27 50  1  0  0  0  0
 27 51  1  0  0  0  0
 27 52  1  0  0  0  0
 28 29  1  0  0  0  0
 28 53  1  0  0  0  0
 29 54  1  0  0  0  0
M  END
$$$$
