MODEL 1
REMARK VINA RESULT:   -10.121      0.000      0.000
REMARK INTER + INTRA:         -12.458
REMARK INTER:                 -12.488
REMARK INTRA:                   0.030
REMARK UNBOUND:                 0.030
REMARK  Name = 
REMARK  5 active torsions:
REMARK  status: ('A' for Active; 'I' for Inactive)
REMARK    1  A    between atoms: C_1  and  O_2
REMARK    2  A    between atoms: O_2  and  C_3
REMARK    3  A    between atoms: C_5  and  N_6
REMARK    4  A    between atoms: C_22  and  O_23
REMARK    5  A    between atoms: O_23  and  C_24
REMARK                            x       y       z     vdW  Elec       q    Type
REMARK                         _______ _______ _______ _____ _____    ______ ____
ROOT
ATOM      1  N   UNL     1     -11.449  -4.833  17.549  0.00  0.00    +0.000 N 
ATOM      2  C   UNL     1     -11.030  -6.036  16.965  0.00  0.00    +0.000 C 
ATOM      3  N   UNL     1     -11.495  -6.337  15.728  0.00  0.00    +0.000 N 
ATOM      4  N   UNL     1     -10.228  -6.923  17.646  0.00  0.00    +0.000 N 
ATOM      5  C   UNL     1      -9.827  -8.195  17.175  0.00  0.00    +0.000 A 
ATOM      6  N   UNL     1     -10.136  -8.486  15.959  0.00  0.00    +0.000 NA
ATOM      7  C   UNL     1      -9.797  -9.725  15.471  0.00  0.00    +0.000 A 
ATOM      8  O   UNL     1     -10.002 -10.018  14.302  0.00  0.00    +0.000 OA
ATOM      9  C   UNL     1      -9.229 -10.726  16.421  0.00  0.00    +0.000 A 
ATOM     10  C   UNL     1      -8.937 -10.328  17.675  0.00  0.00    +0.000 A 
ATOM     11  N   UNL     1      -9.193  -9.020  18.047  0.00  0.00    +0.000 N 
ATOM     12  C   UNL     1      -8.393 -11.300  18.698  0.00  0.00    +0.000 C 
ATOM     13  C   UNL     1      -8.549 -12.767  18.275  0.00  0.00    +0.000 C 
ATOM     14  C   UNL     1      -8.143 -12.968  16.819  0.00  0.00    +0.000 C 
ATOM     15  C   UNL     1      -9.012 -12.117  15.894  0.00  0.00    +0.000 C 
ATOM     16  H   UNL     1     -12.271  -4.413  17.128  0.00  0.00    +0.000 HD
ATOM     17  H   UNL     1     -12.041  -5.700  15.167  0.00  0.00    +0.000 HD
ATOM     18  H   UNL     1     -11.193  -7.215  15.289  0.00  0.00    +0.000 HD
ATOM     19  H   UNL     1      -9.981  -6.647  18.588  0.00  0.00    +0.000 HD
ATOM     20  H   UNL     1      -9.007  -8.776  19.013  0.00  0.00    +0.000 HD
ATOM     21  H   UNL     1      -8.904 -11.159  19.657  0.00  0.00    +0.000 HD
ATOM     22  H   UNL     1      -7.331 -11.080  18.861  0.00  0.00    +0.000 HD
ATOM     23  H   UNL     1      -9.594 -13.079  18.406  0.00  0.00    +0.000 HD
ATOM     24  H   UNL     1      -7.943 -13.408  18.926  0.00  0.00    +0.000 HD
ATOM     25  H   UNL     1      -8.234 -14.024  16.540  0.00  0.00    +0.000 HD
ATOM     26  H   UNL     1      -7.089 -12.693  16.690  0.00  0.00    +0.000 HD
ATOM     27  H   UNL     1      -9.992 -12.596  15.776  0.00  0.00    +0.000 HD
ATOM     28  H   UNL     1      -8.544 -12.090  14.902  0.00  0.00    +0.000 HD
ENDROOT
BRANCH   1  31
ATOM     29  C   UNL     1      -8.888  -3.505  19.884  0.00  0.00    +0.000 A 
ATOM     30  C   UNL     1      -9.486  -4.268  18.885  0.00  0.00    +0.000 A 
ATOM     31  C   UNL     1     -10.791  -3.988  18.457  0.00  0.00    +0.000 A 
ATOM     32  C   UNL     1     -11.475  -2.892  19.007  0.00  0.00    +0.000 A 
ATOM     33  C   UNL     1     -10.875  -2.109  19.994  0.00  0.00    +0.000 A 
ATOM     34  C   UNL     1      -9.590  -2.432  20.433  0.00  0.00    +0.000 A 
ATOM     35  H   UNL     1      -8.929  -5.060  18.399  0.00  0.00    +0.000 HD
ATOM     36  H   UNL     1     -12.484  -2.674  18.672  0.00  0.00    +0.000 HD
ATOM     37  H   UNL     1      -9.128  -1.834  21.217  0.00  0.00    +0.000 HD
BRANCH  29  38
ATOM     38  O   UNL     1      -7.649  -3.721  20.415  0.00  0.00    +0.000 OA
BRANCH  38  39
ATOM     39  C   UNL     1      -7.076  -5.012  20.251  0.00  0.00    +0.000 C 
ATOM     40  H   UNL     1      -6.325  -5.151  21.034  0.00  0.00    +0.000 HD
ATOM     41  H   UNL     1      -6.578  -5.089  19.279  0.00  0.00    +0.000 HD
ATOM     42  H   UNL     1      -7.821  -5.806  20.373  0.00  0.00    +0.000 HD
ENDBRANCH  38  39
ENDBRANCH  29  38
BRANCH  33  43
ATOM     43  O   UNL     1     -11.435  -1.038  20.629  0.00  0.00    +0.000 OA
BRANCH  43  44
ATOM     44  C   UNL     1     -11.606  -1.110  22.039  0.00  0.00    +0.000 C 
ATOM     45  H   UNL     1     -10.615  -1.224  22.489  0.00  0.00    +0.000 HD
ATOM     46  H   UNL     1     -12.200  -1.983  22.324  0.00  0.00    +0.000 HD
ATOM     47  H   UNL     1     -12.048  -0.186  22.427  0.00  0.00    +0.000 HD
ENDBRANCH  43  44
ENDBRANCH  33  43
ENDBRANCH   1  31
TORSDOF 5
ENDMDL
MODEL 2
REMARK VINA RESULT:   -10.053      0.241      2.424
REMARK INTER + INTRA:         -12.373
REMARK INTER:                 -12.440
REMARK INTRA:                   0.067
REMARK UNBOUND:                 0.030
REMARK  Name = 
REMARK  5 active torsions:
REMARK  status: ('A' for Active; 'I' for Inactive)
REMARK    1  A    between atoms: C_1  and  O_2
REMARK    2  A    between atoms: O_2  and  C_3
REMARK    3  A    between atoms: C_5  and  N_6
REMARK    4  A    between atoms: C_22  and  O_23
REMARK    5  A    between atoms: O_23  and  C_24
REMARK                            x       y       z     vdW  Elec       q    Type
REMARK                         _______ _______ _______ _____ _____    ______ ____
ROOT
ATOM      1  N   UNL     1     -11.439  -4.972  17.614  0.00  0.00    +0.000 N 
ATOM      2  C   UNL     1     -11.018  -6.146  16.974  0.00  0.00    +0.000 C 
ATOM      3  N   UNL     1     -11.470  -6.382  15.718  0.00  0.00    +0.000 N 
ATOM      4  N   UNL     1     -10.229  -7.071  17.619  0.00  0.00    +0.000 N 
ATOM      5  C   UNL     1      -9.828  -8.320  17.088  0.00  0.00    +0.000 A 
ATOM      6  N   UNL     1     -10.124  -8.547  15.856  0.00  0.00    +0.000 NA
ATOM      7  C   UNL     1      -9.785  -9.761  15.310  0.00  0.00    +0.000 A 
ATOM      8  O   UNL     1      -9.978  -9.993  14.125  0.00  0.00    +0.000 OA
ATOM      9  C   UNL     1      -9.233 -10.812  16.214  0.00  0.00    +0.000 A 
ATOM     10  C   UNL     1      -8.954 -10.479  17.489  0.00  0.00    +0.000 A 
ATOM     11  N   UNL     1      -9.208  -9.191  17.925  0.00  0.00    +0.000 N 
ATOM     12  C   UNL     1      -8.427 -11.505  18.468  0.00  0.00    +0.000 C 
ATOM     13  C   UNL     1      -8.585 -12.948  17.970  0.00  0.00    +0.000 C 
ATOM     14  C   UNL     1      -8.163 -13.077  16.510  0.00  0.00    +0.000 C 
ATOM     15  C   UNL     1      -9.016 -12.175  15.619  0.00  0.00    +0.000 C 
ATOM     16  H   UNL     1     -12.253  -4.527  17.205  0.00  0.00    +0.000 HD
ATOM     17  H   UNL     1     -12.007  -5.713  15.185  0.00  0.00    +0.000 HD
ATOM     18  H   UNL     1     -11.167  -7.237  15.239  0.00  0.00    +0.000 HD
ATOM     19  H   UNL     1      -9.992  -6.844  18.576  0.00  0.00    +0.000 HD
ATOM     20  H   UNL     1      -9.033  -8.997  18.904  0.00  0.00    +0.000 HD
ATOM     21  H   UNL     1      -8.949 -11.410  19.427  0.00  0.00    +0.000 HD
ATOM     22  H   UNL     1      -7.366 -11.299  18.654  0.00  0.00    +0.000 HD
ATOM     23  H   UNL     1      -9.633 -13.260  18.072  0.00  0.00    +0.000 HD
ATOM     24  H   UNL     1      -7.990 -13.625  18.594  0.00  0.00    +0.000 HD
ATOM     25  H   UNL     1      -8.256 -14.117  16.177  0.00  0.00    +0.000 HD
ATOM     26  H   UNL     1      -7.106 -12.801  16.408  0.00  0.00    +0.000 HD
ATOM     27  H   UNL     1      -9.998 -12.642  15.466  0.00  0.00    +0.000 HD
ATOM     28  H   UNL     1      -8.537 -12.101  14.636  0.00  0.00    +0.000 HD
ENDROOT
BRANCH   1  31
ATOM     29  C   UNL     1     -10.695  -2.169  19.930  0.00  0.00    +0.000 A 
ATOM     30  C   UNL     1     -11.395  -3.025  19.085  0.00  0.00    +0.000 A 
ATOM     31  C   UNL     1     -10.787  -4.178  18.572  0.00  0.00    +0.000 A 
ATOM     32  C   UNL     1      -9.477  -4.497  18.963  0.00  0.00    +0.000 A 
ATOM     33  C   UNL     1      -8.774  -3.656  19.827  0.00  0.00    +0.000 A 
ATOM     34  C   UNL     1      -9.387  -2.491  20.293  0.00  0.00    +0.000 A 
ATOM     35  H   UNL     1     -12.434  -2.826  18.850  0.00  0.00    +0.000 HD
ATOM     36  H   UNL     1      -9.008  -5.393  18.568  0.00  0.00    +0.000 HD
ATOM     37  H   UNL     1      -8.833  -1.824  20.952  0.00  0.00    +0.000 HD
BRANCH  29  38
ATOM     38  O   UNL     1     -11.166  -0.994  20.442  0.00  0.00    +0.000 OA
BRANCH  38  39
ATOM     39  C   UNL     1     -11.254  -0.880  21.858  0.00  0.00    +0.000 C 
ATOM     40  H   UNL     1     -10.948   0.132  22.135  0.00  0.00    +0.000 HD
ATOM     41  H   UNL     1     -10.574  -1.589  22.342  0.00  0.00    +0.000 HD
ATOM     42  H   UNL     1     -12.281  -1.017  22.213  0.00  0.00    +0.000 HD
ENDBRANCH  38  39
ENDBRANCH  29  38
BRANCH  33  43
ATOM     43  O   UNL     1      -7.492  -3.833  20.263  0.00  0.00    +0.000 OA
BRANCH  43  44
ATOM     44  C   UNL     1      -6.895  -5.110  20.085  0.00  0.00    +0.000 C 
ATOM     45  H   UNL     1      -7.561  -5.704  19.451  0.00  0.00    +0.000 HD
ATOM     46  H   UNL     1      -6.789  -5.637  21.038  0.00  0.00    +0.000 HD
ATOM     47  H   UNL     1      -5.931  -5.023  19.572  0.00  0.00    +0.000 HD
ENDBRANCH  43  44
ENDBRANCH  33  43
ENDBRANCH   1  31
TORSDOF 5
ENDMDL
MODEL 3
REMARK VINA RESULT:    -9.877      2.882      4.133
REMARK INTER + INTRA:         -12.157
REMARK INTER:                 -12.142
REMARK INTRA:                  -0.015
REMARK UNBOUND:                 0.030
REMARK  Name = 
REMARK  5 active torsions:
REMARK  status: ('A' for Active; 'I' for Inactive)
REMARK    1  A    between atoms: C_1  and  O_2
REMARK    2  A    between atoms: O_2  and  C_3
REMARK    3  A    between atoms: C_5  and  N_6
REMARK    4  A    between atoms: C_22  and  O_23
REMARK    5  A    between atoms: O_23  and  C_24
REMARK                            x       y       z     vdW  Elec       q    Type
REMARK                         _______ _______ _______ _____ _____    ______ ____
ROOT
ATOM      1  N   UNL     1      -9.486  -4.259  17.923  0.00  0.00    +0.000 N 
ATOM      2  C   UNL     1      -9.318  -5.585  18.345  0.00  0.00    +0.000 C 
ATOM      3  N   UNL     1      -8.810  -5.798  19.583  0.00  0.00    +0.000 N 
ATOM      4  N   UNL     1      -9.590  -6.644  17.509  0.00  0.00    +0.000 N 
ATOM      5  C   UNL     1      -9.370  -8.008  17.814  0.00  0.00    +0.000 A 
ATOM      6  N   UNL     1      -9.004  -8.280  19.018  0.00  0.00    +0.000 NA
ATOM      7  C   UNL     1      -8.744  -9.588  19.347  0.00  0.00    +0.000 A 
ATOM      8  O   UNL     1      -8.468  -9.903  20.496  0.00  0.00    +0.000 OA
ATOM      9  C   UNL     1      -8.748 -10.606  18.256  0.00  0.00    +0.000 A 
ATOM     10  C   UNL     1      -9.148 -10.225  17.026  0.00  0.00    +0.000 A 
ATOM     11  N   UNL     1      -9.516  -8.910  16.810  0.00  0.00    +0.000 N 
ATOM     12  C   UNL     1      -9.140 -11.197  15.866  0.00  0.00    +0.000 C 
ATOM     13  C   UNL     1      -8.335 -12.471  16.154  0.00  0.00    +0.000 C 
ATOM     14  C   UNL     1      -8.651 -13.022  17.540  0.00  0.00    +0.000 C 
ATOM     15  C   UNL     1      -8.311 -11.997  18.621  0.00  0.00    +0.000 C 
ATOM     16  H   UNL     1      -8.970  -3.568  18.457  0.00  0.00    +0.000 HD
ATOM     17  H   UNL     1      -8.643  -5.059  20.252  0.00  0.00    +0.000 HD
ATOM     18  H   UNL     1      -8.684  -6.765  19.904  0.00  0.00    +0.000 HD
ATOM     19  H   UNL     1      -9.905  -6.391  16.580  0.00  0.00    +0.000 HD
ATOM     20  H   UNL     1      -9.761  -8.654  15.860  0.00  0.00    +0.000 HD
ATOM     21  H   UNL     1      -8.720 -10.714  14.977  0.00  0.00    +0.000 HD
ATOM     22  H   UNL     1     -10.176 -11.468  15.630  0.00  0.00    +0.000 HD
ATOM     23  H   UNL     1      -7.261 -12.250  16.090  0.00  0.00    +0.000 HD
ATOM     24  H   UNL     1      -8.549 -13.227  15.391  0.00  0.00    +0.000 HD
ATOM     25  H   UNL     1      -8.089 -13.946  17.721  0.00  0.00    +0.000 HD
ATOM     26  H   UNL     1      -9.716 -13.279  17.599  0.00  0.00    +0.000 HD
ATOM     27  H   UNL     1      -7.225 -11.984  18.780  0.00  0.00    +0.000 HD
ATOM     28  H   UNL     1      -8.772 -12.315  19.563  0.00  0.00    +0.000 HD
ENDROOT
BRANCH   1  31
ATOM     29  C   UNL     1     -11.567  -3.691  14.903  0.00  0.00    +0.000 A 
ATOM     30  C   UNL     1     -10.734  -4.317  15.827  0.00  0.00    +0.000 A 
ATOM     31  C   UNL     1     -10.430  -3.699  17.046  0.00  0.00    +0.000 A 
ATOM     32  C   UNL     1     -11.019  -2.463  17.358  0.00  0.00    +0.000 A 
ATOM     33  C   UNL     1     -11.872  -1.838  16.447  0.00  0.00    +0.000 A 
ATOM     34  C   UNL     1     -12.128  -2.454  15.220  0.00  0.00    +0.000 A 
ATOM     35  H   UNL     1     -10.347  -5.309  15.625  0.00  0.00    +0.000 HD
ATOM     36  H   UNL     1     -10.785  -1.987  18.305  0.00  0.00    +0.000 HD
ATOM     37  H   UNL     1     -12.778  -1.959  14.500  0.00  0.00    +0.000 HD
BRANCH  29  38
ATOM     38  O   UNL     1     -11.887  -4.173  13.665  0.00  0.00    +0.000 OA
BRANCH  38  39
ATOM     39  C   UNL     1     -11.179  -3.646  12.550  0.00  0.00    +0.000 C 
ATOM     40  H   UNL     1     -11.077  -4.442  11.807  0.00  0.00    +0.000 HD
ATOM     41  H   UNL     1     -10.176  -3.326  12.850  0.00  0.00    +0.000 HD
ATOM     42  H   UNL     1     -11.725  -2.826  12.072  0.00  0.00    +0.000 HD
ENDBRANCH  38  39
ENDBRANCH  29  38
BRANCH  33  43
ATOM     43  O   UNL     1     -12.486  -0.630  16.610  0.00  0.00    +0.000 OA
BRANCH  43  44
ATOM     44  C   UNL     1     -13.541  -0.290  15.720  0.00  0.00    +0.000 C 
ATOM     45  H   UNL     1     -13.484  -0.968  14.863  0.00  0.00    +0.000 HD
ATOM     46  H   UNL     1     -13.430   0.730  15.341  0.00  0.00    +0.000 HD
ATOM     47  H   UNL     1     -14.516  -0.432  16.197  0.00  0.00    +0.000 HD
ENDBRANCH  43  44
ENDBRANCH  33  43
ENDBRANCH   1  31
TORSDOF 5
ENDMDL
MODEL 4
REMARK VINA RESULT:    -9.785      1.667      1.984
REMARK INTER + INTRA:         -12.043
REMARK INTER:                 -11.967
REMARK INTRA:                  -0.076
REMARK UNBOUND:                 0.030
REMARK  Name = 
REMARK  5 active torsions:
REMARK  status: ('A' for Active; 'I' for Inactive)
REMARK    1  A    between atoms: C_1  and  O_2
REMARK    2  A    between atoms: O_2  and  C_3
REMARK    3  A    between atoms: C_5  and  N_6
REMARK    4  A    between atoms: C_22  and  O_23
REMARK    5  A    between atoms: O_23  and  C_24
REMARK                            x       y       z     vdW  Elec       q    Type
REMARK                         _______ _______ _______ _____ _____    ______ ____
ROOT
ATOM      1  N   UNL     1      -9.516  -4.957  18.213  0.00  0.00    +0.000 N 
ATOM      2  C   UNL     1      -9.426  -6.130  17.449  0.00  0.00    +0.000 C 
ATOM      3  N   UNL     1      -9.926  -6.106  16.189  0.00  0.00    +0.000 N 
ATOM      4  N   UNL     1      -8.914  -7.292  17.977  0.00  0.00    +0.000 N 
ATOM      5  C   UNL     1      -8.863  -8.541  17.315  0.00  0.00    +0.000 A 
ATOM      6  N   UNL     1      -9.210  -8.554  16.075  0.00  0.00    +0.000 NA
ATOM      7  C   UNL     1      -9.210  -9.752  15.403  0.00  0.00    +0.000 A 
ATOM      8  O   UNL     1      -9.458  -9.801  14.207  0.00  0.00    +0.000 OA
ATOM      9  C   UNL     1      -8.959 -10.999  16.183  0.00  0.00    +0.000 A 
ATOM     10  C   UNL     1      -8.601 -10.885  17.477  0.00  0.00    +0.000 A 
ATOM     11  N   UNL     1      -8.500  -9.627  18.044  0.00  0.00    +0.000 N 
ATOM     12  C   UNL     1      -8.368 -12.109  18.335  0.00  0.00    +0.000 C 
ATOM     13  C   UNL     1      -8.908 -13.399  17.701  0.00  0.00    +0.000 C 
ATOM     14  C   UNL     1      -8.537 -13.485  16.225  0.00  0.00    +0.000 C 
ATOM     15  C   UNL     1      -9.117 -12.302  15.451  0.00  0.00    +0.000 C 
ATOM     16  H   UNL     1     -10.181  -4.271  17.873  0.00  0.00    +0.000 HD
ATOM     17  H   UNL     1     -10.264  -5.267  15.739  0.00  0.00    +0.000 HD
ATOM     18  H   UNL     1      -9.864  -6.957  15.620  0.00  0.00    +0.000 HD
ATOM     19  H   UNL     1      -8.624  -7.236  18.945  0.00  0.00    +0.000 HD
ATOM     20  H   UNL     1      -8.278  -9.588  19.032  0.00  0.00    +0.000 HD
ATOM     21  H   UNL     1      -8.845 -11.977  19.313  0.00  0.00    +0.000 HD
ATOM     22  H   UNL     1      -7.291 -12.214  18.511  0.00  0.00    +0.000 HD
ATOM     23  H   UNL     1     -10.001 -13.428  17.802  0.00  0.00    +0.000 HD
ATOM     24  H   UNL     1      -8.516 -14.270  18.239  0.00  0.00    +0.000 HD
ATOM     25  H   UNL     1      -8.905 -14.423  15.793  0.00  0.00    +0.000 HD
ATOM     26  H   UNL     1      -7.444 -13.493  16.120  0.00  0.00    +0.000 HD
ATOM     27  H   UNL     1     -10.188 -12.472  15.280  0.00  0.00    +0.000 HD
ATOM     28  H   UNL     1      -8.636 -12.258  14.467  0.00  0.00    +0.000 HD
ENDROOT
BRANCH   1  31
ATOM     29  C   UNL     1      -6.591  -4.574  20.465  0.00  0.00    +0.000 A 
ATOM     30  C   UNL     1      -7.373  -4.962  19.381  0.00  0.00    +0.000 A 
ATOM     31  C   UNL     1      -8.675  -4.468  19.226  0.00  0.00    +0.000 A 
ATOM     32  C   UNL     1      -9.168  -3.529  20.145  0.00  0.00    +0.000 A 
ATOM     33  C   UNL     1      -8.384  -3.117  21.223  0.00  0.00    +0.000 A 
ATOM     34  C   UNL     1      -7.105  -3.655  21.380  0.00  0.00    +0.000 A 
ATOM     35  H   UNL     1      -6.964  -5.621  18.624  0.00  0.00    +0.000 HD
ATOM     36  H   UNL     1     -10.176  -3.143  20.021  0.00  0.00    +0.000 HD
ATOM     37  H   UNL     1      -6.498  -3.349  22.232  0.00  0.00    +0.000 HD
BRANCH  29  38
ATOM     38  O   UNL     1      -5.336  -5.032  20.746  0.00  0.00    +0.000 OA
BRANCH  38  39
ATOM     39  C   UNL     1      -4.697  -5.846  19.770  0.00  0.00    +0.000 C 
ATOM     40  H   UNL     1      -4.121  -5.191  19.109  0.00  0.00    +0.000 HD
ATOM     41  H   UNL     1      -5.442  -6.374  19.166  0.00  0.00    +0.000 HD
ATOM     42  H   UNL     1      -3.992  -6.548  20.224  0.00  0.00    +0.000 HD
ENDBRANCH  38  39
ENDBRANCH  29  38
BRANCH  33  43
ATOM     43  O   UNL     1      -8.749  -2.236  22.201  0.00  0.00    +0.000 OA
BRANCH  43  44
ATOM     44  C   UNL     1      -8.653  -2.661  23.554  0.00  0.00    +0.000 C 
ATOM     45  H   UNL     1      -7.703  -2.292  23.952  0.00  0.00    +0.000 HD
ATOM     46  H   UNL     1      -8.641  -3.752  23.629  0.00  0.00    +0.000 HD
ATOM     47  H   UNL     1      -9.460  -2.231  24.157  0.00  0.00    +0.000 HD
ENDBRANCH  43  44
ENDBRANCH  33  43
ENDBRANCH   1  31
TORSDOF 5
ENDMDL
MODEL 5
REMARK VINA RESULT:    -9.776      2.112      8.351
REMARK INTER + INTRA:         -12.031
REMARK INTER:                 -11.973
REMARK INTRA:                  -0.058
REMARK UNBOUND:                 0.030
REMARK  Name = 
REMARK  5 active torsions:
REMARK  status: ('A' for Active; 'I' for Inactive)
REMARK    1  A    between atoms: C_1  and  O_2
REMARK    2  A    between atoms: O_2  and  C_3
REMARK    3  A    between atoms: C_5  and  N_6
REMARK    4  A    between atoms: C_22  and  O_23
REMARK    5  A    between atoms: O_23  and  C_24
REMARK                            x       y       z     vdW  Elec       q    Type
REMARK                         _______ _______ _______ _____ _____    ______ ____
ROOT
ATOM      1  N   UNL     1      -9.387  -8.666  15.959  0.00  0.00    +0.000 N 
ATOM      2  C   UNL     1      -9.401  -7.565  16.826  0.00  0.00    +0.000 C 
ATOM      3  N   UNL     1     -10.311  -6.587  16.595  0.00  0.00    +0.000 N 
ATOM      4  N   UNL     1      -8.479  -7.438  17.839  0.00  0.00    +0.000 N 
ATOM      5  C   UNL     1      -8.360  -6.326  18.706  0.00  0.00    +0.000 A 
ATOM      6  N   UNL     1      -9.271  -5.421  18.615  0.00  0.00    +0.000 NA
ATOM      7  C   UNL     1      -9.175  -4.306  19.413  0.00  0.00    +0.000 A 
ATOM      8  O   UNL     1     -10.056  -3.458  19.415  0.00  0.00    +0.000 OA
ATOM      9  C   UNL     1      -7.939  -4.127  20.229  0.00  0.00    +0.000 A 
ATOM     10  C   UNL     1      -7.041  -5.131  20.262  0.00  0.00    +0.000 A 
ATOM     11  N   UNL     1      -7.279  -6.278  19.526  0.00  0.00    +0.000 N 
ATOM     12  C   UNL     1      -5.750  -5.001  21.040  0.00  0.00    +0.000 C 
ATOM     13  C   UNL     1      -5.442  -3.555  21.455  0.00  0.00    +0.000 C 
ATOM     14  C   UNL     1      -6.681  -2.866  22.015  0.00  0.00    +0.000 C 
ATOM     15  C   UNL     1      -7.797  -2.828  20.971  0.00  0.00    +0.000 C 
ATOM     16  H   UNL     1      -9.866  -8.525  15.076  0.00  0.00    +0.000 HD
ATOM     17  H   UNL     1     -11.040  -6.656  15.900  0.00  0.00    +0.000 HD
ATOM     18  H   UNL     1     -10.332  -5.776  17.225  0.00  0.00    +0.000 HD
ATOM     19  H   UNL     1      -7.797  -8.183  17.898  0.00  0.00    +0.000 HD
ATOM     20  H   UNL     1      -6.555  -6.986  19.537  0.00  0.00    +0.000 HD
ATOM     21  H   UNL     1      -4.913  -5.376  20.441  0.00  0.00    +0.000 HD
ATOM     22  H   UNL     1      -5.816  -5.629  21.936  0.00  0.00    +0.000 HD
ATOM     23  H   UNL     1      -5.077  -2.993  20.585  0.00  0.00    +0.000 HD
ATOM     24  H   UNL     1      -4.637  -3.546  22.200  0.00  0.00    +0.000 HD
ATOM     25  H   UNL     1      -6.439  -1.845  22.331  0.00  0.00    +0.000 HD
ATOM     26  H   UNL     1      -7.029  -3.402  22.906  0.00  0.00    +0.000 HD
ATOM     27  H   UNL     1      -7.582  -2.037  20.240  0.00  0.00    +0.000 HD
ATOM     28  H   UNL     1      -8.735  -2.559  21.471  0.00  0.00    +0.000 HD
ENDROOT
BRANCH   1  31
ATOM     29  C   UNL     1      -8.591 -12.244  15.377  0.00  0.00    +0.000 A 
ATOM     30  C   UNL     1      -8.807 -10.890  15.137  0.00  0.00    +0.000 A 
ATOM     31  C   UNL     1      -9.035 -10.004  16.199  0.00  0.00    +0.000 A 
ATOM     32  C   UNL     1      -8.988 -10.484  17.517  0.00  0.00    +0.000 A 
ATOM     33  C   UNL     1      -8.752 -11.837  17.768  0.00  0.00    +0.000 A 
ATOM     34  C   UNL     1      -8.568 -12.708  16.692  0.00  0.00    +0.000 A 
ATOM     35  H   UNL     1      -8.759 -10.502  14.126  0.00  0.00    +0.000 HD
ATOM     36  H   UNL     1      -9.161  -9.797  18.339  0.00  0.00    +0.000 HD
ATOM     37  H   UNL     1      -8.402 -13.767  16.885  0.00  0.00    +0.000 HD
BRANCH  29  38
ATOM     38  O   UNL     1      -8.415 -13.203  14.421  0.00  0.00    +0.000 OA
BRANCH  38  39
ATOM     39  C   UNL     1      -8.774 -14.539  14.752  0.00  0.00    +0.000 C 
ATOM     40  H   UNL     1      -7.933 -15.189  14.494  0.00  0.00    +0.000 HD
ATOM     41  H   UNL     1      -9.645 -14.857  14.169  0.00  0.00    +0.000 HD
ATOM     42  H   UNL     1      -8.956 -14.656  15.825  0.00  0.00    +0.000 HD
ENDBRANCH  38  39
ENDBRANCH  29  38
BRANCH  33  43
ATOM     43  O   UNL     1      -8.708 -12.437  18.994  0.00  0.00    +0.000 OA
BRANCH  43  44
ATOM     44  C   UNL     1      -8.800 -13.855  19.047  0.00  0.00    +0.000 C 
ATOM     45  H   UNL     1      -8.599 -14.240  18.042  0.00  0.00    +0.000 HD
ATOM     46  H   UNL     1      -9.805 -14.179  19.330  0.00  0.00    +0.000 HD
ATOM     47  H   UNL     1      -8.045 -14.271  19.723  0.00  0.00    +0.000 HD
ENDBRANCH  43  44
ENDBRANCH  33  43
ENDBRANCH   1  31
TORSDOF 5
ENDMDL
MODEL 6
REMARK VINA RESULT:    -9.677      2.135      8.188
REMARK INTER + INTRA:         -11.910
REMARK INTER:                 -11.990
REMARK INTRA:                   0.080
REMARK UNBOUND:                 0.030
REMARK  Name = 
REMARK  5 active torsions:
REMARK  status: ('A' for Active; 'I' for Inactive)
REMARK    1  A    between atoms: C_1  and  O_2
REMARK    2  A    between atoms: O_2  and  C_3
REMARK    3  A    between atoms: C_5  and  N_6
REMARK    4  A    between atoms: C_22  and  O_23
REMARK    5  A    between atoms: O_23  and  C_24
REMARK                            x       y       z     vdW  Elec       q    Type
REMARK                         _______ _______ _______ _____ _____    ______ ____
ROOT
ATOM      1  N   UNL     1      -9.298  -7.247  16.148  0.00  0.00    +0.000 N 
ATOM      2  C   UNL     1      -9.453  -6.094  16.930  0.00  0.00    +0.000 C 
ATOM      3  N   UNL     1     -10.091  -5.033  16.377  0.00  0.00    +0.000 N 
ATOM      4  N   UNL     1      -8.917  -6.007  18.194  0.00  0.00    +0.000 N 
ATOM      5  C   UNL     1      -8.947  -4.859  19.021  0.00  0.00    +0.000 A 
ATOM      6  N   UNL     1      -9.643  -3.861  18.600  0.00  0.00    +0.000 NA
ATOM      7  C   UNL     1      -9.670  -2.713  19.354  0.00  0.00    +0.000 A 
ATOM      8  O   UNL     1     -10.377  -1.768  19.034  0.00  0.00    +0.000 OA
ATOM      9  C   UNL     1      -8.769  -2.625  20.540  0.00  0.00    +0.000 A 
ATOM     10  C   UNL     1      -8.079  -3.724  20.904  0.00  0.00    +0.000 A 
ATOM     11  N   UNL     1      -8.208  -4.883  20.159  0.00  0.00    +0.000 N 
ATOM     12  C   UNL     1      -7.120  -3.694  22.073  0.00  0.00    +0.000 C 
ATOM     13  C   UNL     1      -6.775  -2.270  22.532  0.00  0.00    +0.000 C 
ATOM     14  C   UNL     1      -8.025  -1.400  22.616  0.00  0.00    +0.000 C 
ATOM     15  C   UNL     1      -8.709  -1.304  21.253  0.00  0.00    +0.000 C 
ATOM     16  H   UNL     1      -9.428  -7.112  15.151  0.00  0.00    +0.000 HD
ATOM     17  H   UNL     1     -10.546  -5.064  15.476  0.00  0.00    +0.000 HD
ATOM     18  H   UNL     1     -10.213  -4.184  16.940  0.00  0.00    +0.000 HD
ATOM     19  H   UNL     1      -8.402  -6.822  18.501  0.00  0.00    +0.000 HD
ATOM     20  H   UNL     1      -7.633  -5.670  20.436  0.00  0.00    +0.000 HD
ATOM     21  H   UNL     1      -6.189  -4.207  21.807  0.00  0.00    +0.000 HD
ATOM     22  H   UNL     1      -7.567  -4.246  22.908  0.00  0.00    +0.000 HD
ATOM     23  H   UNL     1      -6.067  -1.817  21.826  0.00  0.00    +0.000 HD
ATOM     24  H   UNL     1      -6.275  -2.304  23.506  0.00  0.00    +0.000 HD
ATOM     25  H   UNL     1      -7.768  -0.396  22.970  0.00  0.00    +0.000 HD
ATOM     26  H   UNL     1      -8.722  -1.829  23.348  0.00  0.00    +0.000 HD
ATOM     27  H   UNL     1      -8.156  -0.597  20.620  0.00  0.00    +0.000 HD
ATOM     28  H   UNL     1      -9.715  -0.891  21.395  0.00  0.00    +0.000 HD
ENDROOT
BRANCH   1  31
ATOM     29  C   UNL     1      -8.763 -10.295  18.197  0.00  0.00    +0.000 A 
ATOM     30  C   UNL     1      -8.960  -8.961  17.852  0.00  0.00    +0.000 A 
ATOM     31  C   UNL     1      -9.232  -8.598  16.527  0.00  0.00    +0.000 A 
ATOM     32  C   UNL     1      -9.362  -9.600  15.552  0.00  0.00    +0.000 A 
ATOM     33  C   UNL     1      -9.186 -10.942  15.892  0.00  0.00    +0.000 A 
ATOM     34  C   UNL     1      -8.875 -11.276  17.211  0.00  0.00    +0.000 A 
ATOM     35  H   UNL     1      -8.945  -8.194  18.618  0.00  0.00    +0.000 HD
ATOM     36  H   UNL     1      -9.577  -9.318  14.526  0.00  0.00    +0.000 HD
ATOM     37  H   UNL     1      -8.719 -12.322  17.475  0.00  0.00    +0.000 HD
BRANCH  29  38
ATOM     38  O   UNL     1      -8.438 -10.757  19.440  0.00  0.00    +0.000 OA
BRANCH  38  39
ATOM     39  C   UNL     1      -8.395  -9.813  20.503  0.00  0.00    +0.000 C 
ATOM     40  H   UNL     1      -7.374  -9.427  20.571  0.00  0.00    +0.000 HD
ATOM     41  H   UNL     1      -8.643 -10.295  21.454  0.00  0.00    +0.000 HD
ATOM     42  H   UNL     1      -9.053  -8.958  20.315  0.00  0.00    +0.000 HD
ENDBRANCH  38  39
ENDBRANCH  29  38
BRANCH  33  43
ATOM     43  O   UNL     1      -9.257 -12.008  15.042  0.00  0.00    +0.000 OA
BRANCH  43  44
ATOM     44  C   UNL     1      -8.489 -13.163  15.353  0.00  0.00    +0.000 C 
ATOM     45  H   UNL     1      -8.845 -13.551  16.312  0.00  0.00    +0.000 HD
ATOM     46  H   UNL     1      -7.429 -12.918  15.469  0.00  0.00    +0.000 HD
ATOM     47  H   UNL     1      -8.634 -13.945  14.599  0.00  0.00    +0.000 HD
ENDBRANCH  43  44
ENDBRANCH  33  43
ENDBRANCH   1  31
TORSDOF 5
ENDMDL
MODEL 7
REMARK VINA RESULT:    -9.586      2.881      4.555
REMARK INTER + INTRA:         -11.797
REMARK INTER:                 -11.821
REMARK INTRA:                   0.024
REMARK UNBOUND:                 0.030
REMARK  Name = 
REMARK  5 active torsions:
REMARK  status: ('A' for Active; 'I' for Inactive)
REMARK    1  A    between atoms: C_1  and  O_2
REMARK    2  A    between atoms: O_2  and  C_3
REMARK    3  A    between atoms: C_5  and  N_6
REMARK    4  A    between atoms: C_22  and  O_23
REMARK    5  A    between atoms: O_23  and  C_24
REMARK                            x       y       z     vdW  Elec       q    Type
REMARK                         _______ _______ _______ _____ _____    ______ ____
ROOT
ATOM      1  N   UNL     1      -9.379  -4.167  17.924  0.00  0.00    +0.000 N 
ATOM      2  C   UNL     1      -9.255  -5.510  18.308  0.00  0.00    +0.000 C 
ATOM      3  N   UNL     1      -8.821  -5.773  19.565  0.00  0.00    +0.000 N 
ATOM      4  N   UNL     1      -9.495  -6.534  17.421  0.00  0.00    +0.000 N 
ATOM      5  C   UNL     1      -9.312  -7.911  17.689  0.00  0.00    +0.000 A 
ATOM      6  N   UNL     1      -9.019  -8.231  18.901  0.00  0.00    +0.000 NA
ATOM      7  C   UNL     1      -8.797  -9.554  19.199  0.00  0.00    +0.000 A 
ATOM      8  O   UNL     1      -8.591  -9.913  20.349  0.00  0.00    +0.000 OA
ATOM      9  C   UNL     1      -8.754 -10.533  18.074  0.00  0.00    +0.000 A 
ATOM     10  C   UNL     1      -9.077 -10.104  16.838  0.00  0.00    +0.000 A 
ATOM     11  N   UNL     1      -9.413  -8.775  16.647  0.00  0.00    +0.000 N 
ATOM     12  C   UNL     1      -9.018 -11.034  15.646  0.00  0.00    +0.000 C 
ATOM     13  C   UNL     1      -8.248 -12.331  15.934  0.00  0.00    +0.000 C 
ATOM     14  C   UNL     1      -8.651 -12.925  17.280  0.00  0.00    +0.000 C 
ATOM     15  C   UNL     1      -8.359 -11.942  18.413  0.00  0.00    +0.000 C 
ATOM     16  H   UNL     1      -8.884  -3.504  18.511  0.00  0.00    +0.000 HD
ATOM     17  H   UNL     1      -8.682  -5.061  20.267  0.00  0.00    +0.000 HD
ATOM     18  H   UNL     1      -8.728  -6.752  19.858  0.00  0.00    +0.000 HD
ATOM     19  H   UNL     1      -9.752  -6.244  16.486  0.00  0.00    +0.000 HD
ATOM     20  H   UNL     1      -9.599  -8.483  15.695  0.00  0.00    +0.000 HD
ATOM     21  H   UNL     1      -8.540 -10.528  14.800  0.00  0.00    +0.000 HD
ATOM     22  H   UNL     1     -10.042 -11.280  15.342  0.00  0.00    +0.000 HD
ATOM     23  H   UNL     1      -7.169 -12.125  15.938  0.00  0.00    +0.000 HD
ATOM     24  H   UNL     1      -8.430 -13.057  15.133  0.00  0.00    +0.000 HD
ATOM     25  H   UNL     1      -8.114 -13.863  17.459  0.00  0.00    +0.000 HD
ATOM     26  H   UNL     1      -9.721 -13.166  17.269  0.00  0.00    +0.000 HD
ATOM     27  H   UNL     1      -7.284 -11.954  18.634  0.00  0.00    +0.000 HD
ATOM     28  H   UNL     1      -8.877 -12.286  19.316  0.00  0.00    +0.000 HD
ENDROOT
BRANCH   1  31
ATOM     29  C   UNL     1     -11.904  -1.850  16.498  0.00  0.00    +0.000 A 
ATOM     30  C   UNL     1     -10.930  -2.374  17.344  0.00  0.00    +0.000 A 
ATOM     31  C   UNL     1     -10.263  -3.562  17.016  0.00  0.00    +0.000 A 
ATOM     32  C   UNL     1     -10.545  -4.194  15.795  0.00  0.00    +0.000 A 
ATOM     33  C   UNL     1     -11.505  -3.666  14.931  0.00  0.00    +0.000 A 
ATOM     34  C   UNL     1     -12.186  -2.503  15.298  0.00  0.00    +0.000 A 
ATOM     35  H   UNL     1     -10.650  -1.841  18.245  0.00  0.00    +0.000 HD
ATOM     36  H   UNL     1     -10.025  -5.113  15.540  0.00  0.00    +0.000 HD
ATOM     37  H   UNL     1     -12.949  -2.099  14.634  0.00  0.00    +0.000 HD
BRANCH  29  38
ATOM     38  O   UNL     1     -12.653  -0.735  16.742  0.00  0.00    +0.000 OA
BRANCH  38  39
ATOM     39  C   UNL     1     -13.643  -0.383  15.783  0.00  0.00    +0.000 C 
ATOM     40  H   UNL     1     -14.005  -1.305  15.317  0.00  0.00    +0.000 HD
ATOM     41  H   UNL     1     -13.212   0.250  15.002  0.00  0.00    +0.000 HD
ATOM     42  H   UNL     1     -14.506   0.103  16.250  0.00  0.00    +0.000 HD
ENDBRANCH  38  39
ENDBRANCH  29  38
BRANCH  33  43
ATOM     43  O   UNL     1     -11.894  -4.192  13.733  0.00  0.00    +0.000 OA
BRANCH  43  44
ATOM     44  C   UNL     1     -11.749  -3.386  12.570  0.00  0.00    +0.000 C 
ATOM     45  H   UNL     1     -10.833  -2.799  12.684  0.00  0.00    +0.000 HD
ATOM     46  H   UNL     1     -12.581  -2.684  12.466  0.00  0.00    +0.000 HD
ATOM     47  H   UNL     1     -11.642  -4.008  11.674  0.00  0.00    +0.000 HD
ENDBRANCH  43  44
ENDBRANCH  33  43
ENDBRANCH   1  31
TORSDOF 5
ENDMDL
MODEL 8
REMARK VINA RESULT:    -9.551      2.106      3.525
REMARK INTER + INTRA:         -11.755
REMARK INTER:                 -11.640
REMARK INTRA:                  -0.115
REMARK UNBOUND:                 0.030
REMARK  Name = 
REMARK  5 active torsions:
REMARK  status: ('A' for Active; 'I' for Inactive)
REMARK    1  A    between atoms: C_1  and  O_2
REMARK    2  A    between atoms: O_2  and  C_3
REMARK    3  A    between atoms: C_5  and  N_6
REMARK    4  A    between atoms: C_22  and  O_23
REMARK    5  A    between atoms: O_23  and  C_24
REMARK                            x       y       z     vdW  Elec       q    Type
REMARK                         _______ _______ _______ _____ _____    ______ ____
ROOT
ATOM      1  N   UNL     1      -9.661  -3.481  19.623  0.00  0.00    +0.000 N 
ATOM      2  C   UNL     1      -9.537  -4.518  18.688  0.00  0.00    +0.000 C 
ATOM      3  N   UNL     1      -9.945  -4.280  17.417  0.00  0.00    +0.000 N 
ATOM      4  N   UNL     1      -9.082  -5.764  19.055  0.00  0.00    +0.000 N 
ATOM      5  C   UNL     1      -9.005  -6.893  18.206  0.00  0.00    +0.000 A 
ATOM      6  N   UNL     1      -9.264  -6.698  16.960  0.00  0.00    +0.000 NA
ATOM      7  C   UNL     1      -9.236  -7.773  16.105  0.00  0.00    +0.000 A 
ATOM      8  O   UNL     1      -9.400  -7.625  14.903  0.00  0.00    +0.000 OA
ATOM      9  C   UNL     1      -9.062  -9.135  16.689  0.00  0.00    +0.000 A 
ATOM     10  C   UNL     1      -8.794  -9.239  18.006  0.00  0.00    +0.000 A 
ATOM     11  N   UNL     1      -8.712  -8.091  18.774  0.00  0.00    +0.000 N 
ATOM     12  C   UNL     1      -8.642 -10.590  18.670  0.00  0.00    +0.000 C 
ATOM     13  C   UNL     1      -9.157 -11.747  17.802  0.00  0.00    +0.000 C 
ATOM     14  C   UNL     1      -8.684 -11.607  16.359  0.00  0.00    +0.000 C 
ATOM     15  C   UNL     1      -9.188 -10.301  15.749  0.00  0.00    +0.000 C 
ATOM     16  H   UNL     1     -10.289  -2.731  19.353  0.00  0.00    +0.000 HD
ATOM     17  H   UNL     1     -10.236  -3.372  17.086  0.00  0.00    +0.000 HD
ATOM     18  H   UNL     1      -9.857  -5.032  16.724  0.00  0.00    +0.000 HD
ATOM     19  H   UNL     1      -8.860  -5.870  20.037  0.00  0.00    +0.000 HD
ATOM     20  H   UNL     1      -8.560  -8.216  19.767  0.00  0.00    +0.000 HD
ATOM     21  H   UNL     1      -9.185 -10.602  19.622  0.00  0.00    +0.000 HD
ATOM     22  H   UNL     1      -7.582 -10.751  18.898  0.00  0.00    +0.000 HD
ATOM     23  H   UNL     1     -10.255 -11.762  17.823  0.00  0.00    +0.000 HD
ATOM     24  H   UNL     1      -8.819 -12.703  18.218  0.00  0.00    +0.000 HD
ATOM     25  H   UNL     1      -9.036 -12.453  15.759  0.00  0.00    +0.000 HD
ATOM     26  H   UNL     1      -7.587 -11.628  16.329  0.00  0.00    +0.000 HD
ATOM     27  H   UNL     1     -10.247 -10.411  15.481  0.00  0.00    +0.000 HD
ATOM     28  H   UNL     1      -8.638 -10.113  14.819  0.00  0.00    +0.000 HD
ENDROOT
BRANCH   1  31
ATOM     29  C   UNL     1      -8.596  -2.008  22.858  0.00  0.00    +0.000 A 
ATOM     30  C   UNL     1      -9.408  -2.414  21.803  0.00  0.00    +0.000 A 
ATOM     31  C   UNL     1      -8.885  -3.183  20.755  0.00  0.00    +0.000 A 
ATOM     32  C   UNL     1      -7.544  -3.592  20.805  0.00  0.00    +0.000 A 
ATOM     33  C   UNL     1      -6.727  -3.208  21.869  0.00  0.00    +0.000 A 
ATOM     34  C   UNL     1      -7.259  -2.407  22.882  0.00  0.00    +0.000 A 
ATOM     35  H   UNL     1     -10.464  -2.171  21.805  0.00  0.00    +0.000 HD
ATOM     36  H   UNL     1      -7.141  -4.192  19.994  0.00  0.00    +0.000 HD
ATOM     37  H   UNL     1      -6.619  -2.090  23.704  0.00  0.00    +0.000 HD
BRANCH  29  38
ATOM     38  O   UNL     1      -8.982  -1.214  23.900  0.00  0.00    +0.000 OA
BRANCH  38  39
ATOM     39  C   UNL     1      -9.813  -1.793  24.898  0.00  0.00    +0.000 C 
ATOM     40  H   UNL     1      -9.822  -1.122  25.762  0.00  0.00    +0.000 HD
ATOM     41  H   UNL     1      -9.409  -2.759  25.219  0.00  0.00    +0.000 HD
ATOM     42  H   UNL     1     -10.848  -1.896  24.556  0.00  0.00    +0.000 HD
ENDBRANCH  38  39
ENDBRANCH  29  38
BRANCH  33  43
ATOM     43  O   UNL     1      -5.405  -3.512  22.027  0.00  0.00    +0.000 OA
BRANCH  43  44
ATOM     44  C   UNL     1      -4.692  -3.998  20.898  0.00  0.00    +0.000 C 
ATOM     45  H   UNL     1      -5.075  -3.480  20.013  0.00  0.00    +0.000 HD
ATOM     46  H   UNL     1      -4.859  -5.069  20.752  0.00  0.00    +0.000 HD
ATOM     47  H   UNL     1      -3.623  -3.772  20.983  0.00  0.00    +0.000 HD
ENDBRANCH  43  44
ENDBRANCH  33  43
ENDBRANCH   1  31
TORSDOF 5
ENDMDL
MODEL 9
REMARK VINA RESULT:    -9.477      4.114      5.938
REMARK INTER + INTRA:         -11.663
REMARK INTER:                 -11.627
REMARK INTRA:                  -0.036
REMARK UNBOUND:                 0.030
REMARK  Name = 
REMARK  5 active torsions:
REMARK  status: ('A' for Active; 'I' for Inactive)
REMARK    1  A    between atoms: C_1  and  O_2
REMARK    2  A    between atoms: O_2  and  C_3
REMARK    3  A    between atoms: C_5  and  N_6
REMARK    4  A    between atoms: C_22  and  O_23
REMARK    5  A    between atoms: O_23  and  C_24
REMARK                            x       y       z     vdW  Elec       q    Type
REMARK                         _______ _______ _______ _____ _____    ______ ____
ROOT
ATOM      1  N   UNL     1     -10.059  -3.585  15.543  0.00  0.00    +0.000 N 
ATOM      2  C   UNL     1      -9.948  -4.819  16.200  0.00  0.00    +0.000 C 
ATOM      3  N   UNL     1      -9.745  -4.809  17.540  0.00  0.00    +0.000 N 
ATOM      4  N   UNL     1      -9.972  -6.006  15.504  0.00  0.00    +0.000 N 
ATOM      5  C   UNL     1      -9.782  -7.291  16.067  0.00  0.00    +0.000 A 
ATOM      6  N   UNL     1      -9.706  -7.355  17.350  0.00  0.00    +0.000 NA
ATOM      7  C   UNL     1      -9.486  -8.578  17.937  0.00  0.00    +0.000 A 
ATOM      8  O   UNL     1      -9.482  -8.700  19.153  0.00  0.00    +0.000 OA
ATOM      9  C   UNL     1      -9.189  -9.742  17.051  0.00  0.00    +0.000 A 
ATOM     10  C   UNL     1      -9.295  -9.578  15.718  0.00  0.00    +0.000 A 
ATOM     11  N   UNL     1      -9.649  -8.339  15.214  0.00  0.00    +0.000 N 
ATOM     12  C   UNL     1      -8.973 -10.705  14.763  0.00  0.00    +0.000 C 
ATOM     13  C   UNL     1      -8.214 -11.861  15.430  0.00  0.00    +0.000 C 
ATOM     14  C   UNL     1      -8.834 -12.224  16.775  0.00  0.00    +0.000 C 
ATOM     15  C   UNL     1      -8.803 -11.028  17.726  0.00  0.00    +0.000 C 
ATOM     16  H   UNL     1      -9.712  -2.788  16.065  0.00  0.00    +0.000 HD
ATOM     17  H   UNL     1      -9.771  -3.971  18.102  0.00  0.00    +0.000 HD
ATOM     18  H   UNL     1      -9.665  -5.707  18.032  0.00  0.00    +0.000 HD
ATOM     19  H   UNL     1     -10.063  -5.917  14.500  0.00  0.00    +0.000 HD
ATOM     20  H   UNL     1      -9.667  -8.244  14.205  0.00  0.00    +0.000 HD
ATOM     21  H   UNL     1      -8.369 -10.329  13.929  0.00  0.00    +0.000 HD
ATOM     22  H   UNL     1      -9.911 -11.084  14.339  0.00  0.00    +0.000 HD
ATOM     23  H   UNL     1      -7.165 -11.572  15.582  0.00  0.00    +0.000 HD
ATOM     24  H   UNL     1      -8.211 -12.735  14.769  0.00  0.00    +0.000 HD
ATOM     25  H   UNL     1      -8.299 -13.067  17.227  0.00  0.00    +0.000 HD
ATOM     26  H   UNL     1      -9.872 -12.548  16.625  0.00  0.00    +0.000 HD
ATOM     27  H   UNL     1      -7.788 -10.913  18.129  0.00  0.00    +0.000 HD
ATOM     28  H   UNL     1      -9.465 -11.238  18.575  0.00  0.00    +0.000 HD
ENDROOT
BRANCH   1  31
ATOM     29  C   UNL     1     -12.468  -1.866  13.305  0.00  0.00    +0.000 A 
ATOM     30  C   UNL     1     -11.652  -2.133  14.401  0.00  0.00    +0.000 A 
ATOM     31  C   UNL     1     -10.783  -3.232  14.394  0.00  0.00    +0.000 A 
ATOM     32  C   UNL     1     -10.698  -4.034  13.245  0.00  0.00    +0.000 A 
ATOM     33  C   UNL     1     -11.497  -3.763  12.134  0.00  0.00    +0.000 A 
ATOM     34  C   UNL     1     -12.385  -2.686  12.179  0.00  0.00    +0.000 A 
ATOM     35  H   UNL     1     -11.654  -1.465  15.254  0.00  0.00    +0.000 HD
ATOM     36  H   UNL     1     -10.022  -4.883  13.239  0.00  0.00    +0.000 HD
ATOM     37  H   UNL     1     -13.023  -2.484  11.320  0.00  0.00    +0.000 HD
BRANCH  29  38
ATOM     38  O   UNL     1     -13.388  -0.861  13.223  0.00  0.00    +0.000 OA
BRANCH  38  39
ATOM     39  C   UNL     1     -14.105  -0.720  12.003  0.00  0.00    +0.000 C 
ATOM     40  H   UNL     1     -14.241  -1.716  11.574  0.00  0.00    +0.000 HD
ATOM     41  H   UNL     1     -13.534  -0.114  11.292  0.00  0.00    +0.000 HD
ATOM     42  H   UNL     1     -15.103  -0.298  12.164  0.00  0.00    +0.000 HD
ENDBRANCH  38  39
ENDBRANCH  29  38
BRANCH  33  43
ATOM     43  O   UNL     1     -11.534  -4.475  10.969  0.00  0.00    +0.000 OA
BRANCH  43  44
ATOM     44  C   UNL     1     -11.883  -3.787   9.775  0.00  0.00    +0.000 C 
ATOM     45  H   UNL     1     -12.972  -3.829   9.673  0.00  0.00    +0.000 HD
ATOM     46  H   UNL     1     -11.451  -4.272   8.895  0.00  0.00    +0.000 HD
ATOM     47  H   UNL     1     -11.590  -2.733   9.831  0.00  0.00    +0.000 HD
ENDBRANCH  43  44
ENDBRANCH  33  43
ENDBRANCH   1  31
TORSDOF 5
ENDMDL
