MODEL 1
REMARK VINA RESULT:    -9.647      0.000      0.000
REMARK INTER + INTRA:         -11.215
REMARK INTER:                 -10.775
REMARK INTRA:                  -0.440
REMARK UNBOUND:                -0.440
REMARK  Name = 
REMARK  3 active torsions:
REMARK  status: ('A' for Active; 'I' for Inactive)
REMARK    1  A    between atoms: C_1  and  C_2
REMARK    2  A    between atoms: N_5  and  C_6
REMARK    3  A    between atoms: C_19  and  N_20
REMARK                            x       y       z     vdW  Elec       q    Type
REMARK                         _______ _______ _______ _____ _____    ______ ____
ROOT
ATOM      1  C   UNL     1      -8.645  -4.462  19.293  0.00  0.00    +0.000 A 
ATOM      2  N   UNL     1      -7.358  -4.837  19.261  0.00  0.00    +0.000 N 
ATOM      3  C   UNL     1      -6.993  -5.957  18.653  0.00  0.00    +0.000 A 
ATOM      4  N   UNL     1      -7.848  -6.780  18.032  0.00  0.00    +0.000 NA
ATOM      5  C   UNL     1      -9.152  -6.431  18.028  0.00  0.00    +0.000 A 
ATOM      6  N   UNL     1     -10.091  -7.280  17.393  0.00  0.00    +0.000 N 
ATOM      7  C   UNL     1      -9.799  -8.613  17.053  0.00  0.00    +0.000 A 
ATOM      8  C   UNL     1      -9.267  -9.484  18.004  0.00  0.00    +0.000 A 
ATOM      9  C   UNL     1      -8.907 -10.778  17.632  0.00  0.00    +0.000 A 
ATOM     10  C   UNL     1      -9.113 -11.173  16.320  0.00  0.00    +0.000 A 
ATOM     11 CL   UNL     1      -8.636 -12.735  15.801  0.00  0.00    +0.000 Cl
ATOM     12  C   UNL     1      -9.697 -10.267  15.445  0.00  0.00    +0.000 A 
ATOM     13  N   UNL     1     -10.053  -8.999  15.787  0.00  0.00    +0.000 NA
ATOM     14  C   UNL     1      -9.612  -5.242  18.627  0.00  0.00    +0.000 A 
ATOM     15  H   UNL     1      -6.678  -4.264  19.767  0.00  0.00    +0.000 HD
ATOM     16  H   UNL     1      -5.947  -6.235  18.688  0.00  0.00    +0.000 HD
ATOM     17  H   UNL     1     -10.459  -6.850  16.547  0.00  0.00    +0.000 HD
ATOM     18  H   UNL     1      -9.113  -9.156  19.027  0.00  0.00    +0.000 HD
ATOM     19  H   UNL     1      -8.466 -11.449  18.360  0.00  0.00    +0.000 HD
ATOM     20  H   UNL     1      -9.892 -10.537  14.412  0.00  0.00    +0.000 HD
ENDROOT
BRANCH   1  24
ATOM     21  C   UNL     1      -8.770  -2.371  23.403  0.00  0.00    +0.000 A 
ATOM     22  C   UNL     1      -9.330  -2.190  22.164  0.00  0.00    +0.000 A 
ATOM     23  C   UNL     1      -8.676  -3.126  21.343  0.00  0.00    +0.000 A 
ATOM     24  N   UNL     1      -9.008  -3.334  20.049  0.00  0.00    +0.000 N 
ATOM     25  N   UNL     1      -7.744  -3.811  22.024  0.00  0.00    +0.000 NA
ATOM     26  O   UNL     1      -7.809  -3.333  23.323  0.00  0.00    +0.000 OA
ATOM     27  H   UNL     1     -10.123  -1.501  21.913  0.00  0.00    +0.000 HD
ATOM     28  H   UNL     1      -9.857  -2.900  19.692  0.00  0.00    +0.000 HD
BRANCH  21  29
ATOM     29  C   UNL     1      -9.004  -1.777  24.731  0.00  0.00    +0.000 C 
ATOM     30  H   UNL     1     -10.034  -1.956  25.060  0.00  0.00    +0.000 HD
ATOM     31  H   UNL     1      -8.834  -0.697  24.713  0.00  0.00    +0.000 HD
ATOM     32  H   UNL     1      -8.332  -2.224  25.472  0.00  0.00    +0.000 HD
ENDBRANCH  21  29
ENDBRANCH   1  24
BRANCH  14  33
ATOM     33  N   UNL     1     -10.994  -4.981  18.783  0.00  0.00    +0.000 N 
ATOM     34  H   UNL     1     -11.370  -5.314  19.673  0.00  0.00    +0.000 HD
ATOM     35  H   UNL     1     -11.604  -5.224  18.007  0.00  0.00    +0.000 HD
ENDBRANCH  14  33
TORSDOF 3
ENDMDL
MODEL 2
REMARK VINA RESULT:    -9.572      4.107      8.394
REMARK INTER + INTRA:         -11.132
REMARK INTER:                 -11.005
REMARK INTRA:                  -0.127
REMARK UNBOUND:                -0.440
REMARK  Name = 
REMARK  3 active torsions:
REMARK  status: ('A' for Active; 'I' for Inactive)
REMARK    1  A    between atoms: C_1  and  C_2
REMARK    2  A    between atoms: N_5  and  C_6
REMARK    3  A    between atoms: C_19  and  N_20
REMARK                            x       y       z     vdW  Elec       q    Type
REMARK                         _______ _______ _______ _____ _____    ______ ____
ROOT
ATOM      1  C   UNL     1      -9.200  -9.017  17.425  0.00  0.00    +0.000 A 
ATOM      2  N   UNL     1      -9.118  -9.547  18.654  0.00  0.00    +0.000 N 
ATOM      3  C   UNL     1      -8.905  -8.777  19.711  0.00  0.00    +0.000 A 
ATOM      4  N   UNL     1      -8.764  -7.447  19.648  0.00  0.00    +0.000 NA
ATOM      5  C   UNL     1      -8.855  -6.872  18.430  0.00  0.00    +0.000 A 
ATOM      6  N   UNL     1      -8.701  -5.468  18.318  0.00  0.00    +0.000 N 
ATOM      7  C   UNL     1      -8.139  -4.683  19.341  0.00  0.00    +0.000 A 
ATOM      8  C   UNL     1      -6.913  -5.032  19.906  0.00  0.00    +0.000 A 
ATOM      9  C   UNL     1      -6.408  -4.292  20.974  0.00  0.00    +0.000 A 
ATOM     10  C   UNL     1      -7.135  -3.204  21.430  0.00  0.00    +0.000 A 
ATOM     11 CL   UNL     1      -6.583  -2.297  22.775  0.00  0.00    +0.000 Cl
ATOM     12  C   UNL     1      -8.320  -2.887  20.782  0.00  0.00    +0.000 A 
ATOM     13  N   UNL     1      -8.832  -3.598  19.740  0.00  0.00    +0.000 NA
ATOM     14  C   UNL     1      -9.110  -7.619  17.265  0.00  0.00    +0.000 A 
ATOM     15  H   UNL     1      -9.168 -10.565  18.742  0.00  0.00    +0.000 HD
ATOM     16  H   UNL     1      -8.808  -9.258  20.678  0.00  0.00    +0.000 HD
ATOM     17  H   UNL     1      -9.582  -5.022  18.075  0.00  0.00    +0.000 HD
ATOM     18  H   UNL     1      -6.358  -5.887  19.535  0.00  0.00    +0.000 HD
ATOM     19  H   UNL     1      -5.470  -4.577  21.436  0.00  0.00    +0.000 HD
ATOM     20  H   UNL     1      -8.915  -2.035  21.094  0.00  0.00    +0.000 HD
ENDROOT
BRANCH   1  24
ATOM     21  C   UNL     1      -8.642 -13.250  15.678  0.00  0.00    +0.000 A 
ATOM     22  C   UNL     1      -8.882 -11.987  15.199  0.00  0.00    +0.000 A 
ATOM     23  C   UNL     1      -9.117 -11.215  16.351  0.00  0.00    +0.000 A 
ATOM     24  N   UNL     1      -9.306  -9.876  16.317  0.00  0.00    +0.000 N 
ATOM     25  N   UNL     1      -9.066 -11.962  17.464  0.00  0.00    +0.000 NA
ATOM     26  O   UNL     1      -8.763 -13.244  17.036  0.00  0.00    +0.000 OA
ATOM     27  H   UNL     1      -8.853 -11.677  14.166  0.00  0.00    +0.000 HD
ATOM     28  H   UNL     1      -9.130  -9.385  15.443  0.00  0.00    +0.000 HD
BRANCH  21  29
ATOM     29  C   UNL     1      -8.281 -14.533  15.051  0.00  0.00    +0.000 C 
ATOM     30  H   UNL     1      -8.146 -14.412  13.970  0.00  0.00    +0.000 HD
ATOM     31  H   UNL     1      -9.058 -15.284  15.216  0.00  0.00    +0.000 HD
ATOM     32  H   UNL     1      -7.339 -14.909  15.467  0.00  0.00    +0.000 HD
ENDBRANCH  21  29
ENDBRANCH   1  24
BRANCH  14  33
ATOM     33  N   UNL     1      -9.015  -7.037  15.978  0.00  0.00    +0.000 N 
ATOM     34  H   UNL     1      -8.054  -6.823  15.702  0.00  0.00    +0.000 HD
ATOM     35  H   UNL     1      -9.643  -6.265  15.770  0.00  0.00    +0.000 HD
ENDBRANCH  14  33
TORSDOF 3
ENDMDL
MODEL 3
REMARK VINA RESULT:    -9.334      2.008      2.226
REMARK INTER + INTRA:         -10.866
REMARK INTER:                 -10.461
REMARK INTRA:                  -0.405
REMARK UNBOUND:                -0.440
REMARK  Name = 
REMARK  3 active torsions:
REMARK  status: ('A' for Active; 'I' for Inactive)
REMARK    1  A    between atoms: C_1  and  C_2
REMARK    2  A    between atoms: N_5  and  C_6
REMARK    3  A    between atoms: C_19  and  N_20
REMARK                            x       y       z     vdW  Elec       q    Type
REMARK                         _______ _______ _______ _____ _____    ______ ____
ROOT
ATOM      1  C   UNL     1     -10.331  -5.061  18.421  0.00  0.00    +0.000 A 
ATOM      2  N   UNL     1      -9.281  -5.443  19.163  0.00  0.00    +0.000 N 
ATOM      3  C   UNL     1      -8.605  -6.543  18.865  0.00  0.00    +0.000 A 
ATOM      4  N   UNL     1      -8.895  -7.339  17.828  0.00  0.00    +0.000 NA
ATOM      5  C   UNL     1      -9.936  -6.982  17.046  0.00  0.00    +0.000 A 
ATOM      6  N   UNL     1     -10.283  -7.802  15.945  0.00  0.00    +0.000 N 
ATOM      7  C   UNL     1      -9.823  -9.124  15.809  0.00  0.00    +0.000 A 
ATOM      8  C   UNL     1      -9.962 -10.031  16.860  0.00  0.00    +0.000 A 
ATOM      9  C   UNL     1      -9.429 -11.313  16.742  0.00  0.00    +0.000 A 
ATOM     10  C   UNL     1      -8.792 -11.661  15.561  0.00  0.00    +0.000 A 
ATOM     11 CL   UNL     1      -8.072 -13.206  15.388  0.00  0.00    +0.000 Cl
ATOM     12  C   UNL     1      -8.740 -10.722  14.541  0.00  0.00    +0.000 A 
ATOM     13  N   UNL     1      -9.252  -9.464  14.637  0.00  0.00    +0.000 NA
ATOM     14  C   UNL     1     -10.684  -5.812  17.280  0.00  0.00    +0.000 A 
ATOM     15  H   UNL     1      -9.057  -4.893  19.996  0.00  0.00    +0.000 HD
ATOM     16  H   UNL     1      -7.789  -6.829  19.519  0.00  0.00    +0.000 HD
ATOM     17  H   UNL     1     -10.070  -7.341  15.064  0.00  0.00    +0.000 HD
ATOM     18  H   UNL     1     -10.465  -9.741  17.776  0.00  0.00    +0.000 HD
ATOM     19  H   UNL     1      -9.508 -12.012  17.566  0.00  0.00    +0.000 HD
ATOM     20  H   UNL     1      -8.265 -10.954  13.593  0.00  0.00    +0.000 HD
ENDROOT
BRANCH   1  24
ATOM     21  C   UNL     1     -10.552  -1.121  20.809  0.00  0.00    +0.000 A 
ATOM     22  C   UNL     1     -11.432  -1.983  20.204  0.00  0.00    +0.000 A 
ATOM     23  C   UNL     1     -10.613  -2.884  19.501  0.00  0.00    +0.000 A 
ATOM     24  N   UNL     1     -11.096  -3.959  18.837  0.00  0.00    +0.000 N 
ATOM     25  N   UNL     1      -9.314  -2.574  19.631  0.00  0.00    +0.000 NA
ATOM     26  O   UNL     1      -9.280  -1.463  20.459  0.00  0.00    +0.000 OA
ATOM     27  H   UNL     1     -12.508  -1.970  20.297  0.00  0.00    +0.000 HD
ATOM     28  H   UNL     1     -12.074  -4.208  18.967  0.00  0.00    +0.000 HD
BRANCH  21  29
ATOM     29  C   UNL     1     -10.703   0.022  21.726  0.00  0.00    +0.000 C 
ATOM     30  H   UNL     1     -10.049  -0.091  22.598  0.00  0.00    +0.000 HD
ATOM     31  H   UNL     1     -11.734   0.107  22.081  0.00  0.00    +0.000 HD
ATOM     32  H   UNL     1     -10.431   0.954  21.220  0.00  0.00    +0.000 HD
ENDBRANCH  21  29
ENDBRANCH   1  24
BRANCH  14  33
ATOM     33  N   UNL     1     -11.881  -5.547  16.575  0.00  0.00    +0.000 N 
ATOM     34  H   UNL     1     -11.881  -4.639  16.106  0.00  0.00    +0.000 HD
ATOM     35  H   UNL     1     -12.756  -5.713  17.065  0.00  0.00    +0.000 HD
ENDBRANCH  14  33
TORSDOF 3
ENDMDL
MODEL 4
REMARK VINA RESULT:    -9.299      3.103      4.196
REMARK INTER + INTRA:         -10.826
REMARK INTER:                 -10.401
REMARK INTRA:                  -0.425
REMARK UNBOUND:                -0.440
REMARK  Name = 
REMARK  3 active torsions:
REMARK  status: ('A' for Active; 'I' for Inactive)
REMARK    1  A    between atoms: C_1  and  C_2
REMARK    2  A    between atoms: N_5  and  C_6
REMARK    3  A    between atoms: C_19  and  N_20
REMARK                            x       y       z     vdW  Elec       q    Type
REMARK                         _______ _______ _______ _____ _____    ______ ____
ROOT
ATOM      1  C   UNL     1     -10.520  -6.519  18.261  0.00  0.00    +0.000 A 
ATOM      2  N   UNL     1     -11.482  -6.754  17.356  0.00  0.00    +0.000 N 
ATOM      3  C   UNL     1     -11.575  -7.932  16.756  0.00  0.00    +0.000 A 
ATOM      4  N   UNL     1     -10.750  -8.959  16.997  0.00  0.00    +0.000 NA
ATOM      5  C   UNL     1      -9.777  -8.769  17.913  0.00  0.00    +0.000 A 
ATOM      6  N   UNL     1      -8.876  -9.826  18.190  0.00  0.00    +0.000 N 
ATOM      7  C   UNL     1      -8.729 -10.940  17.343  0.00  0.00    +0.000 A 
ATOM      8  C   UNL     1      -8.507 -10.763  15.977  0.00  0.00    +0.000 A 
ATOM      9  C   UNL     1      -8.446 -11.873  15.137  0.00  0.00    +0.000 A 
ATOM     10  C   UNL     1      -8.584 -13.135  15.694  0.00  0.00    +0.000 A 
ATOM     11 CL   UNL     1      -8.570 -14.527  14.696  0.00  0.00    +0.000 Cl
ATOM     12  C   UNL     1      -8.749 -13.232  17.068  0.00  0.00    +0.000 A 
ATOM     13  N   UNL     1      -8.814 -12.161  17.905  0.00  0.00    +0.000 NA
ATOM     14  C   UNL     1      -9.632  -7.557  18.614  0.00  0.00    +0.000 A 
ATOM     15  H   UNL     1     -12.101  -5.980  17.103  0.00  0.00    +0.000 HD
ATOM     16  H   UNL     1     -12.345  -8.059  16.004  0.00  0.00    +0.000 HD
ATOM     17  H   UNL     1      -9.029 -10.203  19.122  0.00  0.00    +0.000 HD
ATOM     18  H   UNL     1      -8.401  -9.766  15.560  0.00  0.00    +0.000 HD
ATOM     19  H   UNL     1      -8.303 -11.740  14.072  0.00  0.00    +0.000 HD
ATOM     20  H   UNL     1      -8.845 -14.200  17.550  0.00  0.00    +0.000 HD
ENDROOT
BRANCH   1  24
ATOM     21  C   UNL     1      -9.941  -2.012  17.471  0.00  0.00    +0.000 A 
ATOM     22  C   UNL     1      -9.876  -2.862  18.546  0.00  0.00    +0.000 A 
ATOM     23  C   UNL     1     -10.363  -4.086  18.054  0.00  0.00    +0.000 A 
ATOM     24  N   UNL     1     -10.378  -5.224  18.786  0.00  0.00    +0.000 N 
ATOM     25  N   UNL     1     -10.742  -3.986  16.770  0.00  0.00    +0.000 NA
ATOM     26  O   UNL     1     -10.471  -2.676  16.406  0.00  0.00    +0.000 OA
ATOM     27  H   UNL     1      -9.495  -2.626  19.528  0.00  0.00    +0.000 HD
ATOM     28  H   UNL     1      -9.888  -5.231  19.677  0.00  0.00    +0.000 HD
BRANCH  21  29
ATOM     29  C   UNL     1      -9.553  -0.608  17.250  0.00  0.00    +0.000 C 
ATOM     30  H   UNL     1      -9.889   0.024  18.081  0.00  0.00    +0.000 HD
ATOM     31  H   UNL     1      -9.993  -0.220  16.327  0.00  0.00    +0.000 HD
ATOM     32  H   UNL     1      -8.463  -0.520  17.181  0.00  0.00    +0.000 HD
ENDBRANCH  21  29
ENDBRANCH   1  24
BRANCH  14  33
ATOM     33  N   UNL     1      -8.502  -7.304  19.427  0.00  0.00    +0.000 N 
ATOM     34  H   UNL     1      -8.423  -7.946  20.219  0.00  0.00    +0.000 HD
ATOM     35  H   UNL     1      -8.339  -6.341  19.711  0.00  0.00    +0.000 HD
ENDBRANCH  14  33
TORSDOF 3
ENDMDL
MODEL 5
REMARK VINA RESULT:    -9.231      2.383      3.654
REMARK INTER + INTRA:         -10.751
REMARK INTER:                 -10.838
REMARK INTRA:                   0.087
REMARK UNBOUND:                -0.440
REMARK  Name = 
REMARK  3 active torsions:
REMARK  status: ('A' for Active; 'I' for Inactive)
REMARK    1  A    between atoms: C_1  and  C_2
REMARK    2  A    between atoms: N_5  and  C_6
REMARK    3  A    between atoms: C_19  and  N_20
REMARK                            x       y       z     vdW  Elec       q    Type
REMARK                         _______ _______ _______ _____ _____    ______ ____
ROOT
ATOM      1  C   UNL     1      -9.571  -7.082  18.851  0.00  0.00    +0.000 A 
ATOM      2  N   UNL     1     -10.373  -6.997  17.779  0.00  0.00    +0.000 N 
ATOM      3  C   UNL     1     -10.605  -8.058  17.020  0.00  0.00    +0.000 A 
ATOM      4  N   UNL     1     -10.083  -9.269  17.254  0.00  0.00    +0.000 NA
ATOM      5  C   UNL     1      -9.282  -9.401  18.332  0.00  0.00    +0.000 A 
ATOM      6  N   UNL     1      -8.700 -10.663  18.608  0.00  0.00    +0.000 N 
ATOM      7  C   UNL     1      -8.643 -11.696  17.656  0.00  0.00    +0.000 A 
ATOM      8  C   UNL     1      -8.134 -11.452  16.380  0.00  0.00    +0.000 A 
ATOM      9  C   UNL     1      -8.158 -12.463  15.421  0.00  0.00    +0.000 A 
ATOM     10  C   UNL     1      -8.669 -13.701  15.775  0.00  0.00    +0.000 A 
ATOM     11 CL   UNL     1      -8.770 -14.959  14.615  0.00  0.00    +0.000 Cl
ATOM     12  C   UNL     1      -9.107 -13.883  17.079  0.00  0.00    +0.000 A 
ATOM     13  N   UNL     1      -9.094 -12.909  18.029  0.00  0.00    +0.000 NA
ATOM     14  C   UNL     1      -9.012  -8.328  19.203  0.00  0.00    +0.000 A 
ATOM     15  H   UNL     1     -10.751  -6.078  17.535  0.00  0.00    +0.000 HD
ATOM     16  H   UNL     1     -11.229  -7.929  16.144  0.00  0.00    +0.000 HD
ATOM     17  H   UNL     1      -9.105 -11.077  19.445  0.00  0.00    +0.000 HD
ATOM     18  H   UNL     1      -7.737 -10.475  16.122  0.00  0.00    +0.000 HD
ATOM     19  H   UNL     1      -7.791 -12.270  14.420  0.00  0.00    +0.000 HD
ATOM     20  H   UNL     1      -9.500 -14.840  17.406  0.00  0.00    +0.000 HD
ENDROOT
BRANCH   1  24
ATOM     21  C   UNL     1      -6.324  -4.390  20.720  0.00  0.00    +0.000 A 
ATOM     22  C   UNL     1      -7.691  -4.496  20.763  0.00  0.00    +0.000 A 
ATOM     23  C   UNL     1      -8.000  -5.449  19.776  0.00  0.00    +0.000 A 
ATOM     24  N   UNL     1      -9.253  -5.911  19.560  0.00  0.00    +0.000 N 
ATOM     25  N   UNL     1      -6.898  -5.871  19.137  0.00  0.00    +0.000 NA
ATOM     26  O   UNL     1      -5.843  -5.203  19.738  0.00  0.00    +0.000 OA
ATOM     27  H   UNL     1      -8.354  -3.980  21.442  0.00  0.00    +0.000 HD
ATOM     28  H   UNL     1      -9.979  -5.669  20.230  0.00  0.00    +0.000 HD
BRANCH  21  29
ATOM     29  C   UNL     1      -5.330  -3.629  21.496  0.00  0.00    +0.000 C 
ATOM     30  H   UNL     1      -5.665  -3.495  22.531  0.00  0.00    +0.000 HD
ATOM     31  H   UNL     1      -5.167  -2.639  21.060  0.00  0.00    +0.000 HD
ATOM     32  H   UNL     1      -4.374  -4.162  21.518  0.00  0.00    +0.000 HD
ENDBRANCH  21  29
ENDBRANCH   1  24
BRANCH  14  33
ATOM     33  N   UNL     1      -8.028  -8.426  20.214  0.00  0.00    +0.000 N 
ATOM     34  H   UNL     1      -7.341  -7.670  20.184  0.00  0.00    +0.000 HD
ATOM     35  H   UNL     1      -7.581  -9.330  20.342  0.00  0.00    +0.000 HD
ENDBRANCH  14  33
TORSDOF 3
ENDMDL
MODEL 6
REMARK VINA RESULT:    -9.030      4.342      8.304
REMARK INTER + INTRA:         -10.525
REMARK INTER:                 -10.127
REMARK INTRA:                  -0.399
REMARK UNBOUND:                -0.440
REMARK  Name = 
REMARK  3 active torsions:
REMARK  status: ('A' for Active; 'I' for Inactive)
REMARK    1  A    between atoms: C_1  and  C_2
REMARK    2  A    between atoms: N_5  and  C_6
REMARK    3  A    between atoms: C_19  and  N_20
REMARK                            x       y       z     vdW  Elec       q    Type
REMARK                         _______ _______ _______ _____ _____    ______ ____
ROOT
ATOM      1  C   UNL     1      -9.806  -8.066  17.045  0.00  0.00    +0.000 A 
ATOM      2  N   UNL     1      -8.958  -8.203  18.075  0.00  0.00    +0.000 N 
ATOM      3  C   UNL     1      -8.877  -7.271  19.014  0.00  0.00    +0.000 A 
ATOM      4  N   UNL     1      -9.615  -6.154  19.021  0.00  0.00    +0.000 NA
ATOM      5  C   UNL     1     -10.493  -5.985  18.010  0.00  0.00    +0.000 A 
ATOM      6  N   UNL     1     -11.285  -4.811  17.973  0.00  0.00    +0.000 N 
ATOM      7  C   UNL     1     -10.984  -3.670  18.738  0.00  0.00    +0.000 A 
ATOM      8  C   UNL     1      -9.704  -3.117  18.709  0.00  0.00    +0.000 A 
ATOM      9  C   UNL     1      -9.398  -2.036  19.534  0.00  0.00    +0.000 A 
ATOM     10  C   UNL     1     -10.393  -1.521  20.349  0.00  0.00    +0.000 A 
ATOM     11 CL   UNL     1     -10.052  -0.228  21.420  0.00  0.00    +0.000 Cl
ATOM     12  C   UNL     1     -11.657  -2.090  20.283  0.00  0.00    +0.000 A 
ATOM     13  N   UNL     1     -11.976  -3.147  19.487  0.00  0.00    +0.000 NA
ATOM     14  C   UNL     1     -10.658  -6.943  16.991  0.00  0.00    +0.000 A 
ATOM     15  H   UNL     1      -8.338  -9.016  18.081  0.00  0.00    +0.000 HD
ATOM     16  H   UNL     1      -8.149  -7.410  19.805  0.00  0.00    +0.000 HD
ATOM     17  H   UNL     1     -12.262  -5.023  18.160  0.00  0.00    +0.000 HD
ATOM     18  H   UNL     1      -8.938  -3.535  18.063  0.00  0.00    +0.000 HD
ATOM     19  H   UNL     1      -8.397  -1.622  19.537  0.00  0.00    +0.000 HD
ATOM     20  H   UNL     1     -12.472  -1.710  20.891  0.00  0.00    +0.000 HD
ENDROOT
BRANCH   1  24
ATOM     21  C   UNL     1      -8.762 -12.344  15.671  0.00  0.00    +0.000 A 
ATOM     22  C   UNL     1      -9.101 -11.152  15.082  0.00  0.00    +0.000 A 
ATOM     23  C   UNL     1      -9.462 -10.320  16.157  0.00  0.00    +0.000 A 
ATOM     24  N   UNL     1      -9.777  -9.013  16.008  0.00  0.00    +0.000 N 
ATOM     25  N   UNL     1      -9.390 -10.971  17.329  0.00  0.00    +0.000 NA
ATOM     26  O   UNL     1      -8.946 -12.246  17.017  0.00  0.00    +0.000 OA
ATOM     27  H   UNL     1      -9.053 -10.921  14.029  0.00  0.00    +0.000 HD
ATOM     28  H   UNL     1      -9.609  -8.576  15.104  0.00  0.00    +0.000 HD
BRANCH  21  29
ATOM     29  C   UNL     1      -8.250 -13.629  15.164  0.00  0.00    +0.000 C 
ATOM     30  H   UNL     1      -8.227 -14.380  15.963  0.00  0.00    +0.000 HD
ATOM     31  H   UNL     1      -7.236 -13.519  14.770  0.00  0.00    +0.000 HD
ATOM     32  H   UNL     1      -8.895 -14.008  14.365  0.00  0.00    +0.000 HD
ENDBRANCH  21  29
ENDBRANCH   1  24
BRANCH  14  33
ATOM     33  N   UNL     1     -11.436  -6.673  15.842  0.00  0.00    +0.000 N 
ATOM     34  H   UNL     1     -12.391  -6.377  16.061  0.00  0.00    +0.000 HD
ATOM     35  H   UNL     1     -11.423  -7.365  15.098  0.00  0.00    +0.000 HD
ENDBRANCH  14  33
TORSDOF 3
ENDMDL
MODEL 7
REMARK VINA RESULT:    -8.995      1.722      2.355
REMARK INTER + INTRA:         -10.487
REMARK INTER:                 -10.411
REMARK INTRA:                  -0.076
REMARK UNBOUND:                -0.440
REMARK  Name = 
REMARK  3 active torsions:
REMARK  status: ('A' for Active; 'I' for Inactive)
REMARK    1  A    between atoms: C_1  and  C_2
REMARK    2  A    between atoms: N_5  and  C_6
REMARK    3  A    between atoms: C_19  and  N_20
REMARK                            x       y       z     vdW  Elec       q    Type
REMARK                         _______ _______ _______ _____ _____    ______ ____
ROOT
ATOM      1  C   UNL     1      -6.608  -3.704  20.965  0.00  0.00    +0.000 A 
ATOM      2  N   UNL     1      -5.457  -4.387  20.884  0.00  0.00    +0.000 N 
ATOM      3  C   UNL     1      -5.419  -5.586  20.319  0.00  0.00    +0.000 A 
ATOM      4  N   UNL     1      -6.488  -6.195  19.790  0.00  0.00    +0.000 NA
ATOM      5  C   UNL     1      -7.664  -5.533  19.837  0.00  0.00    +0.000 A 
ATOM      6  N   UNL     1      -8.821  -6.147  19.299  0.00  0.00    +0.000 N 
ATOM      7  C   UNL     1      -8.888  -7.523  19.016  0.00  0.00    +0.000 A 
ATOM      8  C   UNL     1      -8.526  -8.461  19.983  0.00  0.00    +0.000 A 
ATOM      9  C   UNL     1      -8.519  -9.817  19.663  0.00  0.00    +0.000 A 
ATOM     10  C   UNL     1      -8.900 -10.199  18.387  0.00  0.00    +0.000 A 
ATOM     11 CL   UNL     1      -8.856 -11.850  17.928  0.00  0.00    +0.000 Cl
ATOM     12  C   UNL     1      -9.299  -9.213  17.496  0.00  0.00    +0.000 A 
ATOM     13  N   UNL     1      -9.311  -7.883  17.788  0.00  0.00    +0.000 NA
ATOM     14  C   UNL     1      -7.778  -4.245  20.394  0.00  0.00    +0.000 A 
ATOM     15  H   UNL     1      -4.627  -3.982  21.322  0.00  0.00    +0.000 HD
ATOM     16  H   UNL     1      -4.473  -6.114  20.314  0.00  0.00    +0.000 HD
ATOM     17  H   UNL     1      -9.126  -5.673  18.452  0.00  0.00    +0.000 HD
ATOM     18  H   UNL     1      -8.230  -8.142  20.978  0.00  0.00    +0.000 HD
ATOM     19  H   UNL     1      -8.210 -10.547  20.401  0.00  0.00    +0.000 HD
ATOM     20  H   UNL     1      -9.621  -9.466  16.492  0.00  0.00    +0.000 HD
ENDROOT
BRANCH   1  24
ATOM     21  C   UNL     1      -8.458  -1.192  24.364  0.00  0.00    +0.000 A 
ATOM     22  C   UNL     1      -7.636  -0.978  23.286  0.00  0.00    +0.000 A 
ATOM     23  C   UNL     1      -7.350  -2.267  22.802  0.00  0.00    +0.000 A 
ATOM     24  N   UNL     1      -6.634  -2.492  21.677  0.00  0.00    +0.000 N 
ATOM     25  N   UNL     1      -7.925  -3.216  23.557  0.00  0.00    +0.000 NA
ATOM     26  O   UNL     1      -8.625  -2.533  24.539  0.00  0.00    +0.000 OA
ATOM     27  H   UNL     1      -7.326  -0.020  22.896  0.00  0.00    +0.000 HD
ATOM     28  H   UNL     1      -6.414  -1.700  21.077  0.00  0.00    +0.000 HD
BRANCH  21  29
ATOM     29  C   UNL     1      -9.170  -0.308  25.301  0.00  0.00    +0.000 C 
ATOM     30  H   UNL     1      -8.621   0.631  25.443  0.00  0.00    +0.000 HD
ATOM     31  H   UNL     1      -9.288  -0.784  26.278  0.00  0.00    +0.000 HD
ATOM     32  H   UNL     1     -10.163  -0.060  24.912  0.00  0.00    +0.000 HD
ENDBRANCH  21  29
ENDBRANCH   1  24
BRANCH  14  33
ATOM     33  N   UNL     1      -9.041  -3.643  20.608  0.00  0.00    +0.000 N 
ATOM     34  H   UNL     1      -9.011  -2.872  21.280  0.00  0.00    +0.000 HD
ATOM     35  H   UNL     1      -9.827  -4.262  20.786  0.00  0.00    +0.000 HD
ENDBRANCH  14  33
TORSDOF 3
ENDMDL
MODEL 8
REMARK VINA RESULT:    -8.670      4.592      8.441
REMARK INTER + INTRA:         -10.124
REMARK INTER:                  -9.955
REMARK INTRA:                  -0.168
REMARK UNBOUND:                -0.440
REMARK  Name = 
REMARK  3 active torsions:
REMARK  status: ('A' for Active; 'I' for Inactive)
REMARK    1  A    between atoms: C_1  and  C_2
REMARK    2  A    between atoms: N_5  and  C_6
REMARK    3  A    between atoms: C_19  and  N_20
REMARK                            x       y       z     vdW  Elec       q    Type
REMARK                         _______ _______ _______ _____ _____    ______ ____
ROOT
ATOM      1  C   UNL     1      -9.029  -8.820  17.128  0.00  0.00    +0.000 A 
ATOM      2  N   UNL     1      -9.029  -8.422  15.848  0.00  0.00    +0.000 N 
ATOM      3  C   UNL     1      -9.239  -7.152  15.533  0.00  0.00    +0.000 A 
ATOM      4  N   UNL     1      -9.454  -6.186  16.435  0.00  0.00    +0.000 NA
ATOM      5  C   UNL     1      -9.446  -6.542  17.737  0.00  0.00    +0.000 A 
ATOM      6  N   UNL     1      -9.680  -5.553  18.724  0.00  0.00    +0.000 N 
ATOM      7  C   UNL     1     -10.239  -4.298  18.422  0.00  0.00    +0.000 A 
ATOM      8  C   UNL     1     -11.420  -4.211  17.684  0.00  0.00    +0.000 A 
ATOM      9  C   UNL     1     -11.919  -2.961  17.322  0.00  0.00    +0.000 A 
ATOM     10  C   UNL     1     -11.232  -1.829  17.732  0.00  0.00    +0.000 A 
ATOM     11 CL   UNL     1     -11.775  -0.272  17.267  0.00  0.00    +0.000 Cl
ATOM     12  C   UNL     1     -10.095  -1.996  18.509  0.00  0.00    +0.000 A 
ATOM     13  N   UNL     1      -9.590  -3.207  18.871  0.00  0.00    +0.000 NA
ATOM     14  C   UNL     1      -9.201  -7.866  18.152  0.00  0.00    +0.000 A 
ATOM     15  H   UNL     1      -8.921  -9.136  15.123  0.00  0.00    +0.000 HD
ATOM     16  H   UNL     1      -9.268  -6.888  14.482  0.00  0.00    +0.000 HD
ATOM     17  H   UNL     1      -8.836  -5.361  19.257  0.00  0.00    +0.000 HD
ATOM     18  H   UNL     1     -11.944  -5.110  17.372  0.00  0.00    +0.000 HD
ATOM     19  H   UNL     1     -12.819  -2.888  16.724  0.00  0.00    +0.000 HD
ATOM     20  H   UNL     1      -9.534  -1.138  18.866  0.00  0.00    +0.000 HD
ENDROOT
BRANCH   1  24
ATOM     21  C   UNL     1      -8.629 -13.138  15.553  0.00  0.00    +0.000 A 
ATOM     22  C   UNL     1      -8.916 -12.524  16.746  0.00  0.00    +0.000 A 
ATOM     23  C   UNL     1      -8.671 -11.160  16.506  0.00  0.00    +0.000 A 
ATOM     24  N   UNL     1      -8.923 -10.191  17.417  0.00  0.00    +0.000 N 
ATOM     25  N   UNL     1      -8.222 -10.952  15.259  0.00  0.00    +0.000 NA
ATOM     26  O   UNL     1      -8.200 -12.202  14.661  0.00  0.00    +0.000 OA
ATOM     27  H   UNL     1      -9.284 -13.002  17.641  0.00  0.00    +0.000 HD
ATOM     28  H   UNL     1      -9.445 -10.440  18.254  0.00  0.00    +0.000 HD
BRANCH  21  29
ATOM     29  C   UNL     1      -8.709 -14.526  15.070  0.00  0.00    +0.000 C 
ATOM     30  H   UNL     1      -9.034 -14.556  14.023  0.00  0.00    +0.000 HD
ATOM     31  H   UNL     1      -9.419 -15.109  15.664  0.00  0.00    +0.000 HD
ATOM     32  H   UNL     1      -7.727 -15.008  15.130  0.00  0.00    +0.000 HD
ENDBRANCH  21  29
ENDBRANCH   1  24
BRANCH  14  33
ATOM     33  N   UNL     1      -9.381  -8.263  19.498  0.00  0.00    +0.000 N 
ATOM     34  H   UNL     1      -9.927  -7.595  20.047  0.00  0.00    +0.000 HD
ATOM     35  H   UNL     1      -8.558  -8.576  20.005  0.00  0.00    +0.000 HD
ENDBRANCH  14  33
TORSDOF 3
ENDMDL
MODEL 9
REMARK VINA RESULT:    -8.669      4.840      7.985
REMARK INTER + INTRA:         -10.122
REMARK INTER:                  -9.912
REMARK INTRA:                  -0.210
REMARK UNBOUND:                -0.440
REMARK  Name = 
REMARK  3 active torsions:
REMARK  status: ('A' for Active; 'I' for Inactive)
REMARK    1  A    between atoms: C_1  and  C_2
REMARK    2  A    between atoms: N_5  and  C_6
REMARK    3  A    between atoms: C_19  and  N_20
REMARK                            x       y       z     vdW  Elec       q    Type
REMARK                         _______ _______ _______ _____ _____    ______ ____
ROOT
ATOM      1  C   UNL     1     -10.142  -7.868  16.300  0.00  0.00    +0.000 A 
ATOM      2  N   UNL     1      -9.321  -7.299  15.404  0.00  0.00    +0.000 N 
ATOM      3  C   UNL     1      -9.226  -5.981  15.313  0.00  0.00    +0.000 A 
ATOM      4  N   UNL     1      -9.911  -5.129  16.087  0.00  0.00    +0.000 NA
ATOM      5  C   UNL     1     -10.738  -5.661  17.012  0.00  0.00    +0.000 A 
ATOM      6  N   UNL     1     -11.490  -4.795  17.843  0.00  0.00    +0.000 N 
ATOM      7  C   UNL     1     -11.675  -3.432  17.548  0.00  0.00    +0.000 A 
ATOM      8  C   UNL     1     -12.128  -3.038  16.288  0.00  0.00    +0.000 A 
ATOM      9  C   UNL     1     -12.229  -1.682  15.983  0.00  0.00    +0.000 A 
ATOM     10  C   UNL     1     -11.897  -0.756  16.959  0.00  0.00    +0.000 A 
ATOM     11 CL   UNL     1     -11.953   0.922  16.614  0.00  0.00    +0.000 Cl
ATOM     12  C   UNL     1     -11.507  -1.225  18.205  0.00  0.00    +0.000 A 
ATOM     13  N   UNL     1     -11.399  -2.544  18.523  0.00  0.00    +0.000 NA
ATOM     14  C   UNL     1     -10.870  -7.051  17.189  0.00  0.00    +0.000 A 
ATOM     15  H   UNL     1      -8.817  -7.912  14.758  0.00  0.00    +0.000 HD
ATOM     16  H   UNL     1      -8.578  -5.570  14.548  0.00  0.00    +0.000 HD
ATOM     17  H   UNL     1     -11.158  -4.829  18.804  0.00  0.00    +0.000 HD
ATOM     18  H   UNL     1     -12.383  -3.779  15.537  0.00  0.00    +0.000 HD
ATOM     19  H   UNL     1     -12.552  -1.370  14.997  0.00  0.00    +0.000 HD
ATOM     20  H   UNL     1     -11.252  -0.537  19.005  0.00  0.00    +0.000 HD
ENDROOT
BRANCH   1  24
ATOM     21  C   UNL     1      -8.842 -11.986  17.921  0.00  0.00    +0.000 A 
ATOM     22  C   UNL     1      -9.603 -11.506  16.885  0.00  0.00    +0.000 A 
ATOM     23  C   UNL     1      -9.704 -10.126  17.135  0.00  0.00    +0.000 A 
ATOM     24  N   UNL     1     -10.306  -9.263  16.285  0.00  0.00    +0.000 N 
ATOM     25  N   UNL     1      -9.080  -9.784  18.272  0.00  0.00    +0.000 NA
ATOM     26  O   UNL     1      -8.536 -10.960  18.764  0.00  0.00    +0.000 OA
ATOM     27  H   UNL     1      -9.992 -12.079  16.056  0.00  0.00    +0.000 HD
ATOM     28  H   UNL     1     -10.572  -9.600  15.362  0.00  0.00    +0.000 HD
BRANCH  21  29
ATOM     29  C   UNL     1      -8.305 -13.312  18.270  0.00  0.00    +0.000 C 
ATOM     30  H   UNL     1      -7.219 -13.267  18.413  0.00  0.00    +0.000 HD
ATOM     31  H   UNL     1      -8.515 -14.041  17.482  0.00  0.00    +0.000 HD
ATOM     32  H   UNL     1      -8.752 -13.671  19.204  0.00  0.00    +0.000 HD
ENDBRANCH  21  29
ENDBRANCH   1  24
BRANCH  14  33
ATOM     33  N   UNL     1     -11.873  -7.597  18.025  0.00  0.00    +0.000 N 
ATOM     34  H   UNL     1     -12.812  -7.532  17.625  0.00  0.00    +0.000 HD
ATOM     35  H   UNL     1     -11.865  -7.320  19.003  0.00  0.00    +0.000 HD
ENDBRANCH  14  33
TORSDOF 3
ENDMDL
