MODEL 1
REMARK VINA RESULT:   -11.335      0.000      0.000
REMARK INTER + INTRA:         -15.134
REMARK INTER:                 -14.979
REMARK INTRA:                  -0.154
REMARK UNBOUND:                -0.154
REMARK  Name = 
REMARK  7 active torsions:
REMARK  status: ('A' for Active; 'I' for Inactive)
REMARK    1  A    between atoms: C_1  and  C_2
REMARK    2  A    between atoms: C_5  and  C_6
REMARK    3  A    between atoms: C_9  and  S_10
REMARK    4  A    between atoms: S_10  and  C_11
REMARK    5  A    between atoms: C_11  and  C_12
REMARK    6  A    between atoms: C_11  and  C_13
REMARK    7  A    between atoms: N_25  and  N_26
REMARK                            x       y       z     vdW  Elec       q    Type
REMARK                         _______ _______ _______ _____ _____    ______ ____
ROOT
ATOM      1  C   UNL     1      -8.101  -5.553  18.689  0.00  0.00    +0.000 C 
ATOM      2  H   UNL     1      -8.412  -4.582  18.289  0.00  0.00    +0.000 HD
ENDROOT
BRANCH   1   3
ATOM      3  C   UNL     1      -7.200  -5.317  19.909  0.00  0.00    +0.000 C 
ATOM      4  O   UNL     1      -6.214  -6.032  20.114  0.00  0.00    +0.000 OA
ATOM      5  N   UNL     1      -7.513  -4.240  20.733  0.00  0.00    +0.000 N 
ATOM      6  C   UNL     1      -6.707  -4.014  21.943  0.00  0.00    +0.000 C 
ATOM      7  C   UNL     1      -6.463  -2.522  22.180  0.00  0.00    +0.000 C 
ATOM      8  C   UNL     1      -7.816  -1.885  22.379  0.00  0.00    +0.000 A 
ATOM      9  C   UNL     1      -8.104  -1.025  23.437  0.00  0.00    +0.000 A 
ATOM     10  C   UNL     1      -9.407  -0.555  23.606  0.00  0.00    +0.000 A 
ATOM     11  C   UNL     1     -10.417  -0.924  22.715  0.00  0.00    +0.000 A 
ATOM     12  C   UNL     1     -10.128  -1.768  21.645  0.00  0.00    +0.000 A 
ATOM     13  C   UNL     1      -8.834  -2.263  21.485  0.00  0.00    +0.000 A 
ATOM     14  C   UNL     1      -8.485  -3.202  20.363  0.00  0.00    +0.000 C 
ATOM     15  H   UNL     1      -5.756  -4.552  21.888  0.00  0.00    +0.000 HD
ATOM     16  H   UNL     1      -7.272  -4.444  22.783  0.00  0.00    +0.000 HD
ATOM     17  H   UNL     1      -5.975  -2.072  21.304  0.00  0.00    +0.000 HD
ATOM     18  H   UNL     1      -5.816  -2.368  23.048  0.00  0.00    +0.000 HD
ATOM     19  H   UNL     1      -7.331  -0.748  24.148  0.00  0.00    +0.000 HD
ATOM     20  H   UNL     1      -9.645   0.081  24.455  0.00  0.00    +0.000 HD
ATOM     21  H   UNL     1     -11.432  -0.565  22.862  0.00  0.00    +0.000 HD
ATOM     22  H   UNL     1     -10.921  -2.057  20.960  0.00  0.00    +0.000 HD
ATOM     23  H   UNL     1      -8.031  -2.626  19.546  0.00  0.00    +0.000 HD
ATOM     24  H   UNL     1      -9.397  -3.656  19.975  0.00  0.00    +0.000 HD
ENDBRANCH   1   3
BRANCH   1  25
ATOM     25  C   UNL     1      -7.355  -6.252  17.557  0.00  0.00    +0.000 C 
ATOM     26  H   UNL     1      -7.669  -7.291  17.418  0.00  0.00    +0.000 HD
ATOM     27  H   UNL     1      -6.282  -6.277  17.790  0.00  0.00    +0.000 HD
ATOM     28  H   UNL     1      -7.467  -5.716  16.610  0.00  0.00    +0.000 HD
ENDBRANCH   1  25
BRANCH   1  29
ATOM     29  S   UNL     1      -9.635  -6.436  19.175  0.00  0.00    +0.000 S 
BRANCH  29  33
ATOM     30  C   UNL     1      -8.898 -10.127  18.344  0.00  0.00    +0.000 A 
ATOM     31  N   UNL     1      -8.488 -10.097  19.605  0.00  0.00    +0.000 NA
ATOM     32  N   UNL     1      -8.639  -8.810  20.089  0.00  0.00    +0.000 NA
ATOM     33  C   UNL     1      -9.153  -8.094  19.122  0.00  0.00    +0.000 A 
ATOM     34  N   UNL     1      -9.411  -8.884  18.036  0.00  0.00    +0.000 N 
BRANCH  30  38
ATOM     35  C   UNL     1      -8.679 -13.473  15.677  0.00  0.00    +0.000 A 
ATOM     36  C   UNL     1      -8.612 -13.664  17.061  0.00  0.00    +0.000 A 
ATOM     37  C   UNL     1      -8.692 -12.569  17.932  0.00  0.00    +0.000 A 
ATOM     38  C   UNL     1      -8.841 -11.270  17.433  0.00  0.00    +0.000 A 
ATOM     39  C   UNL     1      -8.897 -11.090  16.045  0.00  0.00    +0.000 A 
ATOM     40  C   UNL     1      -8.830 -12.178  15.176  0.00  0.00    +0.000 A 
ATOM     41  H   UNL     1      -8.492 -14.661  17.476  0.00  0.00    +0.000 HD
ATOM     42  H   UNL     1      -8.629 -12.740  19.007  0.00  0.00    +0.000 HD
ATOM     43  H   UNL     1      -8.970 -10.094  15.613  0.00  0.00    +0.000 HD
ATOM     44  H   UNL     1      -8.875 -12.002  14.102  0.00  0.00    +0.000 HD
BRANCH  35  45
ATOM     45  C   UNL     1      -8.563 -14.621  14.720  0.00  0.00    +0.000 C 
ATOM     46  H   UNL     1      -9.465 -14.731  14.112  0.00  0.00    +0.000 HD
ATOM     47  H   UNL     1      -8.414 -15.551  15.278  0.00  0.00    +0.000 HD
ATOM     48  H   UNL     1      -7.714 -14.467  14.046  0.00  0.00    +0.000 HD
ENDBRANCH  35  45
ENDBRANCH  30  38
BRANCH  34  49
ATOM     49  N   UNL     1     -10.145  -8.490  16.848  0.00  0.00    +0.000 N 
ATOM     50  H   UNL     1     -11.147  -8.550  17.031  0.00  0.00    +0.000 HD
ATOM     51  H   UNL     1      -9.971  -9.157  16.095  0.00  0.00    +0.000 HD
ENDBRANCH  34  49
ENDBRANCH  29  33
ENDBRANCH   1  29
TORSDOF 7
ENDMDL
MODEL 2
REMARK VINA RESULT:   -10.908      4.210      9.793
REMARK INTER + INTRA:         -14.569
REMARK INTER:                 -13.969
REMARK INTRA:                  -0.600
REMARK UNBOUND:                -0.154
REMARK  Name = 
REMARK  7 active torsions:
REMARK  status: ('A' for Active; 'I' for Inactive)
REMARK    1  A    between atoms: C_1  and  C_2
REMARK    2  A    between atoms: C_5  and  C_6
REMARK    3  A    between atoms: C_9  and  S_10
REMARK    4  A    between atoms: S_10  and  C_11
REMARK    5  A    between atoms: C_11  and  C_12
REMARK    6  A    between atoms: C_11  and  C_13
REMARK    7  A    between atoms: N_25  and  N_26
REMARK                            x       y       z     vdW  Elec       q    Type
REMARK                         _______ _______ _______ _____ _____    ______ ____
ROOT
ATOM      1  C   UNL     1      -9.090  -7.728  17.741  0.00  0.00    +0.000 C 
ATOM      2  H   UNL     1      -8.714  -8.494  18.427  0.00  0.00    +0.000 HD
ENDROOT
BRANCH   1   3
ATOM      3  C   UNL     1      -9.285  -8.359  16.355  0.00  0.00    +0.000 C 
ATOM      4  O   UNL     1      -9.539  -7.658  15.371  0.00  0.00    +0.000 OA
ATOM      5  N   UNL     1      -9.110  -9.736  16.253  0.00  0.00    +0.000 N 
ATOM      6  C   UNL     1      -9.342 -10.387  14.954  0.00  0.00    +0.000 C 
ATOM      7  C   UNL     1      -8.314 -11.491  14.692  0.00  0.00    +0.000 C 
ATOM      8  C   UNL     1      -8.492 -12.519  15.781  0.00  0.00    +0.000 A 
ATOM      9  C   UNL     1      -8.599 -13.885  15.528  0.00  0.00    +0.000 A 
ATOM     10  C   UNL     1      -8.859 -14.762  16.582  0.00  0.00    +0.000 A 
ATOM     11  C   UNL     1      -8.993 -14.284  17.887  0.00  0.00    +0.000 A 
ATOM     12  C   UNL     1      -8.867 -12.921  18.147  0.00  0.00    +0.000 A 
ATOM     13  C   UNL     1      -8.633 -12.035  17.095  0.00  0.00    +0.000 A 
ATOM     14  C   UNL     1      -8.522 -10.553  17.325  0.00  0.00    +0.000 C 
ATOM     15  H   UNL     1      -9.332  -9.656  14.140  0.00  0.00    +0.000 HD
ATOM     16  H   UNL     1     -10.355 -10.813  14.991  0.00  0.00    +0.000 HD
ATOM     17  H   UNL     1      -7.295 -11.081  14.740  0.00  0.00    +0.000 HD
ATOM     18  H   UNL     1      -8.460 -11.928  13.700  0.00  0.00    +0.000 HD
ATOM     19  H   UNL     1      -8.517 -14.266  14.514  0.00  0.00    +0.000 HD
ATOM     20  H   UNL     1      -8.987 -15.823  16.383  0.00  0.00    +0.000 HD
ATOM     21  H   UNL     1      -9.210 -14.971  18.701  0.00  0.00    +0.000 HD
ATOM     22  H   UNL     1      -8.981 -12.555  19.164  0.00  0.00    +0.000 HD
ATOM     23  H   UNL     1      -7.460 -10.281  17.377  0.00  0.00    +0.000 HD
ATOM     24  H   UNL     1      -8.973 -10.302  18.285  0.00  0.00    +0.000 HD
ENDBRANCH   1   3
BRANCH   1  25
ATOM     25  C   UNL     1      -8.034  -6.628  17.723  0.00  0.00    +0.000 C 
ATOM     26  H   UNL     1      -8.310  -5.784  17.084  0.00  0.00    +0.000 HD
ATOM     27  H   UNL     1      -7.095  -7.033  17.321  0.00  0.00    +0.000 HD
ATOM     28  H   UNL     1      -7.820  -6.259  18.730  0.00  0.00    +0.000 HD
ENDBRANCH   1  25
BRANCH   1  29
ATOM     29  S   UNL     1     -10.694  -7.155  18.424  0.00  0.00    +0.000 S 
BRANCH  29  33
ATOM     30  C   UNL     1     -11.113  -3.684  16.800  0.00  0.00    +0.000 A 
ATOM     31  N   UNL     1     -10.367  -3.352  17.845  0.00  0.00    +0.000 NA
ATOM     32  N   UNL     1     -10.130  -4.487  18.599  0.00  0.00    +0.000 NA
ATOM     33  C   UNL     1     -10.719  -5.483  17.988  0.00  0.00    +0.000 A 
ATOM     34  N   UNL     1     -11.280  -5.054  16.817  0.00  0.00    +0.000 N 
BRANCH  30  38
ATOM     35  C   UNL     1     -12.749  -1.058  13.837  0.00  0.00    +0.000 A 
ATOM     36  C   UNL     1     -13.136  -0.944  15.176  0.00  0.00    +0.000 A 
ATOM     37  C   UNL     1     -12.595  -1.799  16.146  0.00  0.00    +0.000 A 
ATOM     38  C   UNL     1     -11.657  -2.777  15.790  0.00  0.00    +0.000 A 
ATOM     39  C   UNL     1     -11.285  -2.887  14.444  0.00  0.00    +0.000 A 
ATOM     40  C   UNL     1     -11.813  -2.031  13.480  0.00  0.00    +0.000 A 
ATOM     41  H   UNL     1     -13.865  -0.197  15.479  0.00  0.00    +0.000 HD
ATOM     42  H   UNL     1     -12.917  -1.700  17.182  0.00  0.00    +0.000 HD
ATOM     43  H   UNL     1     -10.592  -3.660  14.118  0.00  0.00    +0.000 HD
ATOM     44  H   UNL     1     -11.503  -2.145  12.442  0.00  0.00    +0.000 HD
BRANCH  35  45
ATOM     45  C   UNL     1     -13.337  -0.180  12.774  0.00  0.00    +0.000 C 
ATOM     46  H   UNL     1     -12.745  -0.209  11.854  0.00  0.00    +0.000 HD
ATOM     47  H   UNL     1     -13.365   0.856  13.126  0.00  0.00    +0.000 HD
ATOM     48  H   UNL     1     -14.354  -0.505  12.534  0.00  0.00    +0.000 HD
ENDBRANCH  35  45
ENDBRANCH  30  38
BRANCH  34  49
ATOM     49  N   UNL     1     -11.855  -5.897  15.785  0.00  0.00    +0.000 N 
ATOM     50  H   UNL     1     -11.127  -6.490  15.386  0.00  0.00    +0.000 HD
ATOM     51  H   UNL     1     -12.185  -5.321  15.010  0.00  0.00    +0.000 HD
ENDBRANCH  34  49
ENDBRANCH  29  33
ENDBRANCH   1  29
TORSDOF 7
ENDMDL
MODEL 3
REMARK VINA RESULT:   -10.847      1.934      9.875
REMARK INTER + INTRA:         -14.490
REMARK INTER:                 -14.959
REMARK INTRA:                   0.470
REMARK UNBOUND:                -0.154
REMARK  Name = 
REMARK  7 active torsions:
REMARK  status: ('A' for Active; 'I' for Inactive)
REMARK    1  A    between atoms: C_1  and  C_2
REMARK    2  A    between atoms: C_5  and  C_6
REMARK    3  A    between atoms: C_9  and  S_10
REMARK    4  A    between atoms: S_10  and  C_11
REMARK    5  A    between atoms: C_11  and  C_12
REMARK    6  A    between atoms: C_11  and  C_13
REMARK    7  A    between atoms: N_25  and  N_26
REMARK                            x       y       z     vdW  Elec       q    Type
REMARK                         _______ _______ _______ _____ _____    ______ ____
ROOT
ATOM      1  C   UNL     1      -9.608  -6.704  18.453  0.00  0.00    +0.000 C 
ATOM      2  H   UNL     1     -10.251  -5.916  18.859  0.00  0.00    +0.000 HD
ENDROOT
BRANCH   1   3
ATOM      3  C   UNL     1     -10.296  -7.318  17.227  0.00  0.00    +0.000 C 
ATOM      4  O   UNL     1     -11.086  -6.656  16.547  0.00  0.00    +0.000 OA
ATOM      5  N   UNL     1      -9.951  -8.624  16.891  0.00  0.00    +0.000 N 
ATOM      6  C   UNL     1     -10.629  -9.268  15.755  0.00  0.00    +0.000 C 
ATOM      7  C   UNL     1      -9.658 -10.123  14.937  0.00  0.00    +0.000 C 
ATOM      8  C   UNL     1      -9.142 -11.199  15.860  0.00  0.00    +0.000 A 
ATOM      9  C   UNL     1      -9.114 -12.549  15.514  0.00  0.00    +0.000 A 
ATOM     10  C   UNL     1      -8.712 -13.492  16.459  0.00  0.00    +0.000 A 
ATOM     11  C   UNL     1      -8.321 -13.095  17.739  0.00  0.00    +0.000 A 
ATOM     12  C   UNL     1      -8.330 -11.744  18.082  0.00  0.00    +0.000 A 
ATOM     13  C   UNL     1      -8.755 -10.797  17.151  0.00  0.00    +0.000 A 
ATOM     14  C   UNL     1      -8.810  -9.332  17.488  0.00  0.00    +0.000 C 
ATOM     15  H   UNL     1     -11.116  -8.525  15.115  0.00  0.00    +0.000 HD
ATOM     16  H   UNL     1     -11.425  -9.898  16.179  0.00  0.00    +0.000 HD
ATOM     17  H   UNL     1      -8.816  -9.511  14.585  0.00  0.00    +0.000 HD
ATOM     18  H   UNL     1     -10.159 -10.549  14.063  0.00  0.00    +0.000 HD
ATOM     19  H   UNL     1      -9.435 -12.872  14.528  0.00  0.00    +0.000 HD
ATOM     20  H   UNL     1      -8.730 -14.551  16.207  0.00  0.00    +0.000 HD
ATOM     21  H   UNL     1      -8.023 -13.837  18.475  0.00  0.00    +0.000 HD
ATOM     22  H   UNL     1      -8.032 -11.442  19.083  0.00  0.00    +0.000 HD
ATOM     23  H   UNL     1      -7.905  -8.845  17.105  0.00  0.00    +0.000 HD
ATOM     24  H   UNL     1      -8.813  -9.212  18.572  0.00  0.00    +0.000 HD
ENDBRANCH   1   3
BRANCH   1  25
ATOM     25  C   UNL     1      -9.433  -7.720  19.576  0.00  0.00    +0.000 C 
ATOM     26  H   UNL     1     -10.384  -8.052  20.003  0.00  0.00    +0.000 HD
ATOM     27  H   UNL     1      -8.864  -7.261  20.397  0.00  0.00    +0.000 HD
ATOM     28  H   UNL     1      -8.866  -8.595  19.243  0.00  0.00    +0.000 HD
ENDBRANCH   1  25
BRANCH   1  29
ATOM     29  S   UNL     1      -8.029  -5.899  17.977  0.00  0.00    +0.000 S 
BRANCH  29  33
ATOM     30  C   UNL     1      -7.427  -3.996  21.275  0.00  0.00    +0.000 A 
ATOM     31  N   UNL     1      -6.286  -4.667  21.194  0.00  0.00    +0.000 NA
ATOM     32  N   UNL     1      -6.319  -5.463  20.063  0.00  0.00    +0.000 NA
ATOM     33  C   UNL     1      -7.467  -5.245  19.474  0.00  0.00    +0.000 A 
ATOM     34  N   UNL     1      -8.165  -4.278  20.144  0.00  0.00    +0.000 N 
BRANCH  30  38
ATOM     35  C   UNL     1      -8.590  -1.375  24.458  0.00  0.00    +0.000 A 
ATOM     36  C   UNL     1      -7.992  -0.864  23.301  0.00  0.00    +0.000 A 
ATOM     37  C   UNL     1      -7.619  -1.722  22.258  0.00  0.00    +0.000 A 
ATOM     38  C   UNL     1      -7.840  -3.101  22.355  0.00  0.00    +0.000 A 
ATOM     39  C   UNL     1      -8.431  -3.602  23.522  0.00  0.00    +0.000 A 
ATOM     40  C   UNL     1      -8.813  -2.750  24.557  0.00  0.00    +0.000 A 
ATOM     41  H   UNL     1      -7.804   0.202  23.201  0.00  0.00    +0.000 HD
ATOM     42  H   UNL     1      -7.147  -1.304  21.369  0.00  0.00    +0.000 HD
ATOM     43  H   UNL     1      -8.583  -4.671  23.657  0.00  0.00    +0.000 HD
ATOM     44  H   UNL     1      -9.269  -3.172  25.452  0.00  0.00    +0.000 HD
BRANCH  35  45
ATOM     45  C   UNL     1      -8.968  -0.485  25.603  0.00  0.00    +0.000 C 
ATOM     46  H   UNL     1     -10.031  -0.227  25.579  0.00  0.00    +0.000 HD
ATOM     47  H   UNL     1      -8.392   0.444  25.554  0.00  0.00    +0.000 HD
ATOM     48  H   UNL     1      -8.761  -0.985  26.555  0.00  0.00    +0.000 HD
ENDBRANCH  35  45
ENDBRANCH  30  38
BRANCH  34  49
ATOM     49  N   UNL     1      -9.388  -3.641  19.694  0.00  0.00    +0.000 N 
ATOM     50  H   UNL     1     -10.159  -3.913  20.305  0.00  0.00    +0.000 HD
ATOM     51  H   UNL     1      -9.643  -3.992  18.770  0.00  0.00    +0.000 HD
ENDBRANCH  34  49
ENDBRANCH  29  33
ENDBRANCH   1  29
TORSDOF 7
ENDMDL
MODEL 4
REMARK VINA RESULT:   -10.732      1.475      9.735
REMARK INTER + INTRA:         -14.337
REMARK INTER:                 -14.312
REMARK INTRA:                  -0.025
REMARK UNBOUND:                -0.154
REMARK  Name = 
REMARK  7 active torsions:
REMARK  status: ('A' for Active; 'I' for Inactive)
REMARK    1  A    between atoms: C_1  and  C_2
REMARK    2  A    between atoms: C_5  and  C_6
REMARK    3  A    between atoms: C_9  and  S_10
REMARK    4  A    between atoms: S_10  and  C_11
REMARK    5  A    between atoms: C_11  and  C_12
REMARK    6  A    between atoms: C_11  and  C_13
REMARK    7  A    between atoms: N_25  and  N_26
REMARK                            x       y       z     vdW  Elec       q    Type
REMARK                         _______ _______ _______ _____ _____    ______ ____
ROOT
ATOM      1  C   UNL     1      -9.563  -7.372  18.063  0.00  0.00    +0.000 C 
ATOM      2  H   UNL     1     -10.002  -7.826  17.168  0.00  0.00    +0.000 HD
ENDROOT
BRANCH   1   3
ATOM      3  C   UNL     1      -8.907  -8.475  18.905  0.00  0.00    +0.000 C 
ATOM      4  O   UNL     1      -8.528  -8.249  20.058  0.00  0.00    +0.000 OA
ATOM      5  N   UNL     1      -8.810  -9.740  18.332  0.00  0.00    +0.000 N 
ATOM      6  C   UNL     1      -8.138 -10.810  19.086  0.00  0.00    +0.000 C 
ATOM      7  C   UNL     1      -8.855 -12.151  18.911  0.00  0.00    +0.000 C 
ATOM      8  C   UNL     1      -8.795 -12.488  17.442  0.00  0.00    +0.000 A 
ATOM      9  C   UNL     1      -8.393 -13.734  16.963  0.00  0.00    +0.000 A 
ATOM     10  C   UNL     1      -8.272 -13.935  15.588  0.00  0.00    +0.000 A 
ATOM     11  C   UNL     1      -8.567 -12.907  14.690  0.00  0.00    +0.000 A 
ATOM     12  C   UNL     1      -8.989 -11.667  15.165  0.00  0.00    +0.000 A 
ATOM     13  C   UNL     1      -9.088 -11.450  16.539  0.00  0.00    +0.000 A 
ATOM     14  C   UNL     1      -9.508 -10.118  17.096  0.00  0.00    +0.000 C 
ATOM     15  H   UNL     1      -8.060 -10.555  20.147  0.00  0.00    +0.000 HD
ATOM     16  H   UNL     1      -7.112 -10.875  18.695  0.00  0.00    +0.000 HD
ATOM     17  H   UNL     1      -9.906 -12.063  19.222  0.00  0.00    +0.000 HD
ATOM     18  H   UNL     1      -8.382 -12.926  19.520  0.00  0.00    +0.000 HD
ATOM     19  H   UNL     1      -8.140 -14.534  17.652  0.00  0.00    +0.000 HD
ATOM     20  H   UNL     1      -7.915 -14.891  15.212  0.00  0.00    +0.000 HD
ATOM     21  H   UNL     1      -8.457 -13.067  13.621  0.00  0.00    +0.000 HD
ATOM     22  H   UNL     1      -9.210 -10.869  14.460  0.00  0.00    +0.000 HD
ATOM     23  H   UNL     1     -10.578 -10.157  17.341  0.00  0.00    +0.000 HD
ATOM     24  H   UNL     1      -9.375  -9.350  16.334  0.00  0.00    +0.000 HD
ENDBRANCH   1   3
BRANCH   1  25
ATOM     25  C   UNL     1     -10.717  -6.702  18.800  0.00  0.00    +0.000 C 
ATOM     26  H   UNL     1     -10.622  -6.768  19.888  0.00  0.00    +0.000 HD
ATOM     27  H   UNL     1     -11.658  -7.204  18.536  0.00  0.00    +0.000 HD
ATOM     28  H   UNL     1     -10.822  -5.651  18.514  0.00  0.00    +0.000 HD
ENDBRANCH   1  25
BRANCH   1  29
ATOM     29  S   UNL     1      -8.307  -6.168  17.477  0.00  0.00    +0.000 S 
BRANCH  29  33
ATOM     30  C   UNL     1      -7.490  -4.310  20.753  0.00  0.00    +0.000 A 
ATOM     31  N   UNL     1      -6.383  -5.029  20.624  0.00  0.00    +0.000 NA
ATOM     32  N   UNL     1      -6.496  -5.817  19.493  0.00  0.00    +0.000 NA
ATOM     33  C   UNL     1      -7.657  -5.547  18.952  0.00  0.00    +0.000 A 
ATOM     34  N   UNL     1      -8.285  -4.554  19.652  0.00  0.00    +0.000 N 
BRANCH  30  38
ATOM     35  C   UNL     1      -8.506  -1.660  23.962  0.00  0.00    +0.000 A 
ATOM     36  C   UNL     1      -8.459  -3.042  24.172  0.00  0.00    +0.000 A 
ATOM     37  C   UNL     1      -8.119  -3.907  23.124  0.00  0.00    +0.000 A 
ATOM     38  C   UNL     1      -7.820  -3.403  21.852  0.00  0.00    +0.000 A 
ATOM     39  C   UNL     1      -7.879  -2.018  21.652  0.00  0.00    +0.000 A 
ATOM     40  C   UNL     1      -8.206  -1.154  22.695  0.00  0.00    +0.000 A 
ATOM     41  H   UNL     1      -8.691  -3.461  25.148  0.00  0.00    +0.000 HD
ATOM     42  H   UNL     1      -8.097  -4.981  23.307  0.00  0.00    +0.000 HD
ATOM     43  H   UNL     1      -7.695  -1.587  20.670  0.00  0.00    +0.000 HD
ATOM     44  H   UNL     1      -8.245  -0.082  22.505  0.00  0.00    +0.000 HD
BRANCH  35  45
ATOM     45  C   UNL     1      -8.900  -0.713  25.056  0.00  0.00    +0.000 C 
ATOM     46  H   UNL     1      -8.416   0.261  24.939  0.00  0.00    +0.000 HD
ATOM     47  H   UNL     1      -8.601  -1.126  26.025  0.00  0.00    +0.000 HD
ATOM     48  H   UNL     1      -9.983  -0.558  25.051  0.00  0.00    +0.000 HD
ENDBRANCH  35  45
ENDBRANCH  30  38
BRANCH  34  49
ATOM     49  N   UNL     1      -9.497  -3.862  19.254  0.00  0.00    +0.000 N 
ATOM     50  H   UNL     1      -9.255  -2.958  18.848  0.00  0.00    +0.000 HD
ATOM     51  H   UNL     1     -10.058  -3.644  20.078  0.00  0.00    +0.000 HD
ENDBRANCH  34  49
ENDBRANCH  29  33
ENDBRANCH   1  29
TORSDOF 7
ENDMDL
MODEL 5
REMARK VINA RESULT:   -10.487      4.538      5.930
REMARK INTER + INTRA:         -14.013
REMARK INTER:                 -14.086
REMARK INTRA:                   0.073
REMARK UNBOUND:                -0.154
REMARK  Name = 
REMARK  7 active torsions:
REMARK  status: ('A' for Active; 'I' for Inactive)
REMARK    1  A    between atoms: C_1  and  C_2
REMARK    2  A    between atoms: C_5  and  C_6
REMARK    3  A    between atoms: C_9  and  S_10
REMARK    4  A    between atoms: S_10  and  C_11
REMARK    5  A    between atoms: C_11  and  C_12
REMARK    6  A    between atoms: C_11  and  C_13
REMARK    7  A    between atoms: N_25  and  N_26
REMARK                            x       y       z     vdW  Elec       q    Type
REMARK                         _______ _______ _______ _____ _____    ______ ____
ROOT
ATOM      1  C   UNL     1     -10.041  -4.591  17.716  0.00  0.00    +0.000 C 
ATOM      2  H   UNL     1      -9.533  -4.766  16.762  0.00  0.00    +0.000 HD
ENDROOT
BRANCH   1   3
ATOM      3  C   UNL     1     -10.756  -3.234  17.651  0.00  0.00    +0.000 C 
ATOM      4  O   UNL     1     -10.880  -2.536  18.663  0.00  0.00    +0.000 OA
ATOM      5  N   UNL     1     -11.205  -2.809  16.404  0.00  0.00    +0.000 N 
ATOM      6  C   UNL     1     -11.944  -1.540  16.310  0.00  0.00    +0.000 C 
ATOM      7  C   UNL     1     -11.556  -0.761  15.051  0.00  0.00    +0.000 C 
ATOM      8  C   UNL     1     -11.931  -1.623  13.872  0.00  0.00    +0.000 A 
ATOM      9  C   UNL     1     -12.655  -1.146  12.780  0.00  0.00    +0.000 A 
ATOM     10  C   UNL     1     -13.046  -2.031  11.775  0.00  0.00    +0.000 A 
ATOM     11  C   UNL     1     -12.703  -3.383  11.845  0.00  0.00    +0.000 A 
ATOM     12  C   UNL     1     -11.963  -3.859  12.925  0.00  0.00    +0.000 A 
ATOM     13  C   UNL     1     -11.590  -2.986  13.947  0.00  0.00    +0.000 A 
ATOM     14  C   UNL     1     -10.819  -3.463  15.146  0.00  0.00    +0.000 C 
ATOM     15  H   UNL     1     -11.787  -0.926  17.202  0.00  0.00    +0.000 HD
ATOM     16  H   UNL     1     -13.013  -1.799  16.282  0.00  0.00    +0.000 HD
ATOM     17  H   UNL     1     -10.472  -0.577  15.037  0.00  0.00    +0.000 HD
ATOM     18  H   UNL     1     -12.067   0.205  15.021  0.00  0.00    +0.000 HD
ATOM     19  H   UNL     1     -12.946  -0.101  12.725  0.00  0.00    +0.000 HD
ATOM     20  H   UNL     1     -13.649  -1.672  10.944  0.00  0.00    +0.000 HD
ATOM     21  H   UNL     1     -13.024  -4.069  11.065  0.00  0.00    +0.000 HD
ATOM     22  H   UNL     1     -11.706  -4.914  12.976  0.00  0.00    +0.000 HD
ATOM     23  H   UNL     1      -9.754  -3.242  14.994  0.00  0.00    +0.000 HD
ATOM     24  H   UNL     1     -10.919  -4.545  15.233  0.00  0.00    +0.000 HD
ENDBRANCH   1   3
BRANCH   1  25
ATOM     25  C   UNL     1      -8.950  -4.609  18.780  0.00  0.00    +0.000 C 
ATOM     26  H   UNL     1      -8.026  -5.083  18.435  0.00  0.00    +0.000 HD
ATOM     27  H   UNL     1      -9.296  -5.190  19.645  0.00  0.00    +0.000 HD
ATOM     28  H   UNL     1      -8.721  -3.602  19.140  0.00  0.00    +0.000 HD
ENDBRANCH   1  25
BRANCH   1  29
ATOM     29  S   UNL     1     -11.253  -5.954  17.923  0.00  0.00    +0.000 S 
BRANCH  29  33
ATOM     30  C   UNL     1      -9.426  -9.332  17.590  0.00  0.00    +0.000 A 
ATOM     31  N   UNL     1      -8.851  -8.876  18.696  0.00  0.00    +0.000 NA
ATOM     32  N   UNL     1      -9.359  -7.620  18.974  0.00  0.00    +0.000 NA
ATOM     33  C   UNL     1     -10.240  -7.348  18.045  0.00  0.00    +0.000 A 
ATOM     34  N   UNL     1     -10.382  -8.415  17.201  0.00  0.00    +0.000 N 
BRANCH  30  38
ATOM     35  C   UNL     1      -8.593 -13.015  15.567  0.00  0.00    +0.000 A 
ATOM     36  C   UNL     1      -8.848 -11.848  14.839  0.00  0.00    +0.000 A 
ATOM     37  C   UNL     1      -9.113 -10.642  15.502  0.00  0.00    +0.000 A 
ATOM     38  C   UNL     1      -9.124 -10.585  16.901  0.00  0.00    +0.000 A 
ATOM     39  C   UNL     1      -8.876 -11.763  17.619  0.00  0.00    +0.000 A 
ATOM     40  C   UNL     1      -8.602 -12.961  16.962  0.00  0.00    +0.000 A 
ATOM     41  H   UNL     1      -8.851 -11.864  13.752  0.00  0.00    +0.000 HD
ATOM     42  H   UNL     1      -9.318  -9.747  14.916  0.00  0.00    +0.000 HD
ATOM     43  H   UNL     1      -8.917 -11.773  18.706  0.00  0.00    +0.000 HD
ATOM     44  H   UNL     1      -8.415 -13.858  17.551  0.00  0.00    +0.000 HD
BRANCH  35  45
ATOM     45  C   UNL     1      -8.341 -14.325  14.884  0.00  0.00    +0.000 C 
ATOM     46  H   UNL     1      -9.151 -15.037  15.067  0.00  0.00    +0.000 HD
ATOM     47  H   UNL     1      -7.412 -14.764  15.262  0.00  0.00    +0.000 HD
ATOM     48  H   UNL     1      -8.253 -14.178  13.803  0.00  0.00    +0.000 HD
ENDBRANCH  35  45
ENDBRANCH  30  38
BRANCH  34  49
ATOM     49  N   UNL     1     -11.390  -8.560  16.168  0.00  0.00    +0.000 N 
ATOM     50  H   UNL     1     -11.830  -9.478  16.248  0.00  0.00    +0.000 HD
ATOM     51  H   UNL     1     -10.948  -8.556  15.248  0.00  0.00    +0.000 HD
ENDBRANCH  34  49
ENDBRANCH  29  33
ENDBRANCH   1  29
TORSDOF 7
ENDMDL
MODEL 6
REMARK VINA RESULT:   -10.377      1.989      2.580
REMARK INTER + INTRA:         -13.867
REMARK INTER:                 -13.644
REMARK INTRA:                  -0.223
REMARK UNBOUND:                -0.154
REMARK  Name = 
REMARK  7 active torsions:
REMARK  status: ('A' for Active; 'I' for Inactive)
REMARK    1  A    between atoms: C_1  and  C_2
REMARK    2  A    between atoms: C_5  and  C_6
REMARK    3  A    between atoms: C_9  and  S_10
REMARK    4  A    between atoms: S_10  and  C_11
REMARK    5  A    between atoms: C_11  and  C_12
REMARK    6  A    between atoms: C_11  and  C_13
REMARK    7  A    between atoms: N_25  and  N_26
REMARK                            x       y       z     vdW  Elec       q    Type
REMARK                         _______ _______ _______ _____ _____    ______ ____
ROOT
ATOM      1  C   UNL     1      -9.767  -4.244  19.167  0.00  0.00    +0.000 C 
ATOM      2  H   UNL     1     -10.221  -4.457  20.141  0.00  0.00    +0.000 HD
ENDROOT
BRANCH   1   3
ATOM      3  C   UNL     1      -9.631  -2.723  19.010  0.00  0.00    +0.000 C 
ATOM      4  O   UNL     1      -9.592  -2.204  17.890  0.00  0.00    +0.000 OA
ATOM      5  N   UNL     1      -9.606  -1.962  20.175  0.00  0.00    +0.000 N 
ATOM      6  C   UNL     1      -9.420  -0.506  20.069  0.00  0.00    +0.000 C 
ATOM      7  C   UNL     1     -10.293   0.243  21.080  0.00  0.00    +0.000 C 
ATOM      8  C   UNL     1      -9.847  -0.199  22.452  0.00  0.00    +0.000 A 
ATOM      9  C   UNL     1      -9.563   0.694  23.484  0.00  0.00    +0.000 A 
ATOM     10  C   UNL     1      -9.063   0.211  24.693  0.00  0.00    +0.000 A 
ATOM     11  C   UNL     1      -8.862  -1.158  24.883  0.00  0.00    +0.000 A 
ATOM     12  C   UNL     1      -9.163  -2.055  23.860  0.00  0.00    +0.000 A 
ATOM     13  C   UNL     1      -9.639  -1.577  22.639  0.00  0.00    +0.000 A 
ATOM     14  C   UNL     1      -9.946  -2.507  21.497  0.00  0.00    +0.000 C 
ATOM     15  H   UNL     1      -9.628  -0.156  19.053  0.00  0.00    +0.000 HD
ATOM     16  H   UNL     1      -8.357  -0.309  20.266  0.00  0.00    +0.000 HD
ATOM     17  H   UNL     1     -11.350  -0.021  20.939  0.00  0.00    +0.000 HD
ATOM     18  H   UNL     1     -10.190   1.324  20.953  0.00  0.00    +0.000 HD
ATOM     19  H   UNL     1      -9.696   1.763  23.340  0.00  0.00    +0.000 HD
ATOM     20  H   UNL     1      -8.799   0.908  25.485  0.00  0.00    +0.000 HD
ATOM     21  H   UNL     1      -8.458  -1.525  25.822  0.00  0.00    +0.000 HD
ATOM     22  H   UNL     1      -8.996  -3.118  24.012  0.00  0.00    +0.000 HD
ATOM     23  H   UNL     1     -11.025  -2.708  21.484  0.00  0.00    +0.000 HD
ATOM     24  H   UNL     1      -9.438  -3.458  21.659  0.00  0.00    +0.000 HD
ENDBRANCH   1   3
BRANCH   1  25
ATOM     25  C   UNL     1     -10.709  -4.841  18.127  0.00  0.00    +0.000 C 
ATOM     26  H   UNL     1     -11.510  -4.156  17.834  0.00  0.00    +0.000 HD
ATOM     27  H   UNL     1     -11.195  -5.732  18.547  0.00  0.00    +0.000 HD
ATOM     28  H   UNL     1     -10.168  -5.162  17.232  0.00  0.00    +0.000 HD
ENDBRANCH   1  25
BRANCH   1  29
ATOM     29  S   UNL     1      -8.117  -5.047  19.170  0.00  0.00    +0.000 S 
BRANCH  29  33
ATOM     30  C   UNL     1      -8.870  -8.766  18.489  0.00  0.00    +0.000 A 
ATOM     31  N   UNL     1      -9.212  -8.701  19.769  0.00  0.00    +0.000 NA
ATOM     32  N   UNL     1      -8.974  -7.417  20.226  0.00  0.00    +0.000 NA
ATOM     33  C   UNL     1      -8.512  -6.729  19.213  0.00  0.00    +0.000 A 
ATOM     34  N   UNL     1      -8.503  -7.499  18.083  0.00  0.00    +0.000 N 
BRANCH  30  38
ATOM     35  C   UNL     1      -8.872 -12.244  15.988  0.00  0.00    +0.000 A 
ATOM     36  C   UNL     1      -8.509 -12.340  17.336  0.00  0.00    +0.000 A 
ATOM     37  C   UNL     1      -8.516 -11.203  18.154  0.00  0.00    +0.000 A 
ATOM     38  C   UNL     1      -8.888  -9.955  17.638  0.00  0.00    +0.000 A 
ATOM     39  C   UNL     1      -9.240  -9.870  16.285  0.00  0.00    +0.000 A 
ATOM     40  C   UNL     1      -9.245 -11.002  15.471  0.00  0.00    +0.000 A 
ATOM     41  H   UNL     1      -8.212 -13.295  17.761  0.00  0.00    +0.000 HD
ATOM     42  H   UNL     1      -8.222 -11.298  19.199  0.00  0.00    +0.000 HD
ATOM     43  H   UNL     1      -9.494  -8.914  15.833  0.00  0.00    +0.000 HD
ATOM     44  H   UNL     1      -9.522 -10.900  14.423  0.00  0.00    +0.000 HD
BRANCH  35  45
ATOM     45  C   UNL     1      -8.841 -13.437  15.081  0.00  0.00    +0.000 C 
ATOM     46  H   UNL     1      -8.998 -13.153  14.036  0.00  0.00    +0.000 HD
ATOM     47  H   UNL     1      -9.634 -14.137  15.366  0.00  0.00    +0.000 HD
ATOM     48  H   UNL     1      -7.873 -13.944  15.154  0.00  0.00    +0.000 HD
ENDBRANCH  35  45
ENDBRANCH  30  38
BRANCH  34  49
ATOM     49  N   UNL     1      -8.235  -7.035  16.735  0.00  0.00    +0.000 N 
ATOM     50  H   UNL     1      -9.098  -6.685  16.317  0.00  0.00    +0.000 HD
ATOM     51  H   UNL     1      -7.953  -7.820  16.147  0.00  0.00    +0.000 HD
ENDBRANCH  34  49
ENDBRANCH  29  33
ENDBRANCH   1  29
TORSDOF 7
ENDMDL
MODEL 7
REMARK VINA RESULT:   -10.356      2.021      3.319
REMARK INTER + INTRA:         -13.840
REMARK INTER:                 -15.024
REMARK INTRA:                   1.184
REMARK UNBOUND:                -0.154
REMARK  Name = 
REMARK  7 active torsions:
REMARK  status: ('A' for Active; 'I' for Inactive)
REMARK    1  A    between atoms: C_1  and  C_2
REMARK    2  A    between atoms: C_5  and  C_6
REMARK    3  A    between atoms: C_9  and  S_10
REMARK    4  A    between atoms: S_10  and  C_11
REMARK    5  A    between atoms: C_11  and  C_12
REMARK    6  A    between atoms: C_11  and  C_13
REMARK    7  A    between atoms: N_25  and  N_26
REMARK                            x       y       z     vdW  Elec       q    Type
REMARK                         _______ _______ _______ _____ _____    ______ ____
ROOT
ATOM      1  C   UNL     1     -10.744  -5.147  17.801  0.00  0.00    +0.000 C 
ATOM      2  H   UNL     1     -11.012  -5.932  18.516  0.00  0.00    +0.000 HD
ENDROOT
BRANCH   1   3
ATOM      3  C   UNL     1     -10.468  -3.850  18.573  0.00  0.00    +0.000 C 
ATOM      4  O   UNL     1     -11.284  -2.922  18.562  0.00  0.00    +0.000 OA
ATOM      5  N   UNL     1      -9.295  -3.790  19.319  0.00  0.00    +0.000 N 
ATOM      6  C   UNL     1      -8.967  -2.543  20.028  0.00  0.00    +0.000 C 
ATOM      7  C   UNL     1      -8.355  -2.827  21.402  0.00  0.00    +0.000 C 
ATOM      8  C   UNL     1      -7.077  -3.592  21.160  0.00  0.00    +0.000 A 
ATOM      9  C   UNL     1      -5.863  -3.253  21.756  0.00  0.00    +0.000 A 
ATOM     10  C   UNL     1      -4.707  -3.950  21.405  0.00  0.00    +0.000 A 
ATOM     11  C   UNL     1      -4.760  -4.993  20.479  0.00  0.00    +0.000 A 
ATOM     12  C   UNL     1      -5.975  -5.348  19.896  0.00  0.00    +0.000 A 
ATOM     13  C   UNL     1      -7.130  -4.638  20.222  0.00  0.00    +0.000 A 
ATOM     14  C   UNL     1      -8.457  -4.966  19.594  0.00  0.00    +0.000 C 
ATOM     15  H   UNL     1      -9.850  -1.904  20.129  0.00  0.00    +0.000 HD
ATOM     16  H   UNL     1      -8.248  -2.001  19.397  0.00  0.00    +0.000 HD
ATOM     17  H   UNL     1      -9.039  -3.443  22.003  0.00  0.00    +0.000 HD
ATOM     18  H   UNL     1      -8.170  -1.896  21.944  0.00  0.00    +0.000 HD
ATOM     19  H   UNL     1      -5.807  -2.429  22.462  0.00  0.00    +0.000 HD
ATOM     20  H   UNL     1      -3.751  -3.660  21.834  0.00  0.00    +0.000 HD
ATOM     21  H   UNL     1      -3.852  -5.522  20.200  0.00  0.00    +0.000 HD
ATOM     22  H   UNL     1      -6.007  -6.156  19.170  0.00  0.00    +0.000 HD
ATOM     23  H   UNL     1      -9.029  -5.602  20.282  0.00  0.00    +0.000 HD
ATOM     24  H   UNL     1      -8.292  -5.538  18.680  0.00  0.00    +0.000 HD
ENDBRANCH   1   3
BRANCH   1  25
ATOM     25  C   UNL     1     -11.938  -5.009  16.863  0.00  0.00    +0.000 C 
ATOM     26  H   UNL     1     -12.723  -5.745  17.062  0.00  0.00    +0.000 HD
ATOM     27  H   UNL     1     -11.609  -5.173  15.828  0.00  0.00    +0.000 HD
ATOM     28  H   UNL     1     -12.371  -4.005  16.907  0.00  0.00    +0.000 HD
ENDBRANCH   1  25
BRANCH   1  29
ATOM     29  S   UNL     1      -9.231  -5.722  16.935  0.00  0.00    +0.000 S 
BRANCH  29  33
ATOM     30  C   UNL     1      -9.017  -9.559  17.237  0.00  0.00    +0.000 A 
ATOM     31  N   UNL     1      -9.123  -9.241  18.521  0.00  0.00    +0.000 NA
ATOM     32  N   UNL     1      -9.176  -7.863  18.632  0.00  0.00    +0.000 NA
ATOM     33  C   UNL     1      -9.121  -7.377  17.418  0.00  0.00    +0.000 A 
ATOM     34  N   UNL     1      -9.102  -8.393  16.503  0.00  0.00    +0.000 N 
BRANCH  30  38
ATOM     35  C   UNL     1      -8.592 -13.493  15.596  0.00  0.00    +0.000 A 
ATOM     36  C   UNL     1      -8.619 -12.374  14.757  0.00  0.00    +0.000 A 
ATOM     37  C   UNL     1      -8.750 -11.087  15.296  0.00  0.00    +0.000 A 
ATOM     38  C   UNL     1      -8.855 -10.901  16.680  0.00  0.00    +0.000 A 
ATOM     39  C   UNL     1      -8.836 -12.030  17.509  0.00  0.00    +0.000 A 
ATOM     40  C   UNL     1      -8.694 -13.311  16.977  0.00  0.00    +0.000 A 
ATOM     41  H   UNL     1      -8.544 -12.490  13.679  0.00  0.00    +0.000 HD
ATOM     42  H   UNL     1      -8.777 -10.230  14.624  0.00  0.00    +0.000 HD
ATOM     43  H   UNL     1      -8.957 -11.934  18.586  0.00  0.00    +0.000 HD
ATOM     44  H   UNL     1      -8.685 -14.167  17.650  0.00  0.00    +0.000 HD
BRANCH  35  45
ATOM     45  C   UNL     1      -8.487 -14.884  15.045  0.00  0.00    +0.000 C 
ATOM     46  H   UNL     1      -9.131 -15.582  15.588  0.00  0.00    +0.000 HD
ATOM     47  H   UNL     1      -7.454 -15.237  15.133  0.00  0.00    +0.000 HD
ATOM     48  H   UNL     1      -8.782 -14.897  13.991  0.00  0.00    +0.000 HD
ENDBRANCH  35  45
ENDBRANCH  30  38
BRANCH  34  49
ATOM     49  N   UNL     1      -9.228  -8.251  15.065  0.00  0.00    +0.000 N 
ATOM     50  H   UNL     1      -9.945  -7.557  14.853  0.00  0.00    +0.000 HD
ATOM     51  H   UNL     1      -9.570  -9.122  14.658  0.00  0.00    +0.000 HD
ENDBRANCH  34  49
ENDBRANCH  29  33
ENDBRANCH   1  29
TORSDOF 7
ENDMDL
MODEL 8
REMARK VINA RESULT:   -10.040      4.488      9.324
REMARK INTER + INTRA:         -13.423
REMARK INTER:                 -13.225
REMARK INTRA:                  -0.198
REMARK UNBOUND:                -0.154
REMARK  Name = 
REMARK  7 active torsions:
REMARK  status: ('A' for Active; 'I' for Inactive)
REMARK    1  A    between atoms: C_1  and  C_2
REMARK    2  A    between atoms: C_5  and  C_6
REMARK    3  A    between atoms: C_9  and  S_10
REMARK    4  A    between atoms: S_10  and  C_11
REMARK    5  A    between atoms: C_11  and  C_12
REMARK    6  A    between atoms: C_11  and  C_13
REMARK    7  A    between atoms: N_25  and  N_26
REMARK                            x       y       z     vdW  Elec       q    Type
REMARK                         _______ _______ _______ _____ _____    ______ ____
ROOT
ATOM      1  C   UNL     1      -9.937  -7.158  18.186  0.00  0.00    +0.000 C 
ATOM      2  H   UNL     1      -9.785  -7.338  17.117  0.00  0.00    +0.000 HD
ENDROOT
BRANCH   1   3
ATOM      3  C   UNL     1      -9.186  -8.236  18.979  0.00  0.00    +0.000 C 
ATOM      4  O   UNL     1      -8.810  -8.024  20.137  0.00  0.00    +0.000 OA
ATOM      5  N   UNL     1      -8.997  -9.468  18.359  0.00  0.00    +0.000 N 
ATOM      6  C   UNL     1      -8.233 -10.509  19.064  0.00  0.00    +0.000 C 
ATOM      7  C   UNL     1      -8.846 -11.895  18.846  0.00  0.00    +0.000 C 
ATOM      8  C   UNL     1      -8.780 -12.172  17.365  0.00  0.00    +0.000 A 
ATOM      9  C   UNL     1      -8.287 -13.363  16.835  0.00  0.00    +0.000 A 
ATOM     10  C   UNL     1      -8.169 -13.503  15.452  0.00  0.00    +0.000 A 
ATOM     11  C   UNL     1      -8.556 -12.470  14.597  0.00  0.00    +0.000 A 
ATOM     12  C   UNL     1      -9.067 -11.285  15.122  0.00  0.00    +0.000 A 
ATOM     13  C   UNL     1      -9.164 -11.127  16.505  0.00  0.00    +0.000 A 
ATOM     14  C   UNL     1      -9.680  -9.854  17.116  0.00  0.00    +0.000 C 
ATOM     15  H   UNL     1      -8.161 -10.288  20.133  0.00  0.00    +0.000 HD
ATOM     16  H   UNL     1      -7.211 -10.478  18.660  0.00  0.00    +0.000 HD
ATOM     17  H   UNL     1      -9.896 -11.902  19.171  0.00  0.00    +0.000 HD
ATOM     18  H   UNL     1      -8.305 -12.652  19.421  0.00  0.00    +0.000 HD
ATOM     19  H   UNL     1      -7.963 -14.166  17.491  0.00  0.00    +0.000 HD
ATOM     20  H   UNL     1      -7.744 -14.414  15.036  0.00  0.00    +0.000 HD
ATOM     21  H   UNL     1      -8.448 -12.581  13.522  0.00  0.00    +0.000 HD
ATOM     22  H   UNL     1      -9.360 -10.482  14.451  0.00  0.00    +0.000 HD
ATOM     23  H   UNL     1     -10.740  -9.986  17.371  0.00  0.00    +0.000 HD
ATOM     24  H   UNL     1      -9.618  -9.050  16.382  0.00  0.00    +0.000 HD
ENDBRANCH   1   3
BRANCH   1  25
ATOM     25  C   UNL     1     -11.443  -7.231  18.413  0.00  0.00    +0.000 C 
ATOM     26  H   UNL     1     -11.908  -6.244  18.506  0.00  0.00    +0.000 HD
ATOM     27  H   UNL     1     -11.644  -7.762  19.353  0.00  0.00    +0.000 HD
ATOM     28  H   UNL     1     -11.944  -7.787  17.615  0.00  0.00    +0.000 HD
ENDBRANCH   1  25
BRANCH   1  29
ATOM     29  S   UNL     1      -9.249  -5.494  18.541  0.00  0.00    +0.000 S 
BRANCH  29  33
ATOM     30  C   UNL     1     -11.345  -3.385  16.087  0.00  0.00    +0.000 A 
ATOM     31  N   UNL     1     -11.824  -2.929  17.237  0.00  0.00    +0.000 NA
ATOM     32  N   UNL     1     -11.207  -3.606  18.273  0.00  0.00    +0.000 NA
ATOM     33  C   UNL     1     -10.358  -4.443  17.733  0.00  0.00    +0.000 A 
ATOM     34  N   UNL     1     -10.344  -4.291  16.374  0.00  0.00    +0.000 N 
BRANCH  30  38
ATOM     35  C   UNL     1     -12.563  -2.245  12.141  0.00  0.00    +0.000 A 
ATOM     36  C   UNL     1     -12.196  -3.567  12.416  0.00  0.00    +0.000 A 
ATOM     37  C   UNL     1     -11.805  -3.940  13.708  0.00  0.00    +0.000 A 
ATOM     38  C   UNL     1     -11.777  -2.999  14.745  0.00  0.00    +0.000 A 
ATOM     39  C   UNL     1     -12.138  -1.676  14.455  0.00  0.00    +0.000 A 
ATOM     40  C   UNL     1     -12.538  -1.304  13.173  0.00  0.00    +0.000 A 
ATOM     41  H   UNL     1     -12.204  -4.317  11.629  0.00  0.00    +0.000 HD
ATOM     42  H   UNL     1     -11.515  -4.973  13.899  0.00  0.00    +0.000 HD
ATOM     43  H   UNL     1     -12.090  -0.904  15.220  0.00  0.00    +0.000 HD
ATOM     44  H   UNL     1     -12.810  -0.268  12.982  0.00  0.00    +0.000 HD
BRANCH  35  45
ATOM     45  C   UNL     1     -12.953  -1.810  10.760  0.00  0.00    +0.000 C 
ATOM     46  H   UNL     1     -12.081  -1.712  10.108  0.00  0.00    +0.000 HD
ATOM     47  H   UNL     1     -13.452  -0.838  10.808  0.00  0.00    +0.000 HD
ATOM     48  H   UNL     1     -13.633  -2.541  10.311  0.00  0.00    +0.000 HD
ENDBRANCH  35  45
ENDBRANCH  30  38
BRANCH  34  49
ATOM     49  N   UNL     1      -9.405  -4.906  15.455  0.00  0.00    +0.000 N 
ATOM     50  H   UNL     1      -9.387  -5.915  15.611  0.00  0.00    +0.000 HD
ATOM     51  H   UNL     1      -8.458  -4.587  15.660  0.00  0.00    +0.000 HD
ENDBRANCH  34  49
ENDBRANCH  29  33
ENDBRANCH   1  29
TORSDOF 7
ENDMDL
MODEL 9
REMARK VINA RESULT:    -9.861      3.729     10.087
REMARK INTER + INTRA:         -13.186
REMARK INTER:                 -12.869
REMARK INTRA:                  -0.318
REMARK UNBOUND:                -0.154
REMARK  Name = 
REMARK  7 active torsions:
REMARK  status: ('A' for Active; 'I' for Inactive)
REMARK    1  A    between atoms: C_1  and  C_2
REMARK    2  A    between atoms: C_5  and  C_6
REMARK    3  A    between atoms: C_9  and  S_10
REMARK    4  A    between atoms: S_10  and  C_11
REMARK    5  A    between atoms: C_11  and  C_12
REMARK    6  A    between atoms: C_11  and  C_13
REMARK    7  A    between atoms: N_25  and  N_26
REMARK                            x       y       z     vdW  Elec       q    Type
REMARK                         _______ _______ _______ _____ _____    ______ ____
ROOT
ATOM      1  C   UNL     1      -9.035  -7.748  17.710  0.00  0.00    +0.000 C 
ATOM      2  H   UNL     1      -8.636  -8.453  18.446  0.00  0.00    +0.000 HD
ENDROOT
BRANCH   1   3
ATOM      3  C   UNL     1      -9.225  -8.483  16.376  0.00  0.00    +0.000 C 
ATOM      4  O   UNL     1      -9.454  -7.857  15.336  0.00  0.00    +0.000 OA
ATOM      5  N   UNL     1      -9.075  -9.867  16.385  0.00  0.00    +0.000 N 
ATOM      6  C   UNL     1      -9.304 -10.613  15.138  0.00  0.00    +0.000 C 
ATOM      7  C   UNL     1      -8.295 -11.753  14.977  0.00  0.00    +0.000 C 
ATOM      8  C   UNL     1      -8.505 -12.689  16.141  0.00  0.00    +0.000 A 
ATOM      9  C   UNL     1      -8.635 -14.069  15.995  0.00  0.00    +0.000 A 
ATOM     10  C   UNL     1      -8.924 -14.854  17.111  0.00  0.00    +0.000 A 
ATOM     11  C   UNL     1      -9.066 -14.273  18.372  0.00  0.00    +0.000 A 
ATOM     12  C   UNL     1      -8.917 -12.896  18.526  0.00  0.00    +0.000 A 
ATOM     13  C   UNL     1      -8.653 -12.101  17.411  0.00  0.00    +0.000 A 
ATOM     14  C   UNL     1      -8.516 -10.607  17.525  0.00  0.00    +0.000 C 
ATOM     15  H   UNL     1      -9.270  -9.949  14.269  0.00  0.00    +0.000 HD
ATOM     16  H   UNL     1     -10.326 -11.017  15.195  0.00  0.00    +0.000 HD
ATOM     17  H   UNL     1      -7.269 -11.360  15.007  0.00  0.00    +0.000 HD
ATOM     18  H   UNL     1      -8.437 -12.264  14.021  0.00  0.00    +0.000 HD
ATOM     19  H   UNL     1      -8.548 -14.530  15.015  0.00  0.00    +0.000 HD
ATOM     20  H   UNL     1      -9.070 -15.926  16.994  0.00  0.00    +0.000 HD
ATOM     21  H   UNL     1      -9.305 -14.889  19.234  0.00  0.00    +0.000 HD
ATOM     22  H   UNL     1      -9.036 -12.449  19.509  0.00  0.00    +0.000 HD
ATOM     23  H   UNL     1      -7.450 -10.351  17.570  0.00  0.00    +0.000 HD
ATOM     24  H   UNL     1      -8.973 -10.273  18.456  0.00  0.00    +0.000 HD
ENDBRANCH   1   3
BRANCH   1  25
ATOM     25  C   UNL     1      -8.006  -6.628  17.602  0.00  0.00    +0.000 C 
ATOM     26  H   UNL     1      -7.181  -6.739  18.312  0.00  0.00    +0.000 HD
ATOM     27  H   UNL     1      -8.489  -5.668  17.828  0.00  0.00    +0.000 HD
ATOM     28  H   UNL     1      -7.599  -6.552  16.590  0.00  0.00    +0.000 HD
ENDBRANCH   1  25
BRANCH   1  29
ATOM     29  S   UNL     1     -10.648  -7.164  18.365  0.00  0.00    +0.000 S 
BRANCH  29  33
ATOM     30  C   UNL     1     -11.252  -3.710  16.765  0.00  0.00    +0.000 A 
ATOM     31  N   UNL     1     -11.676  -4.488  15.778  0.00  0.00    +0.000 NA
ATOM     32  N   UNL     1     -11.503  -5.809  16.151  0.00  0.00    +0.000 NA
ATOM     33  C   UNL     1     -10.997  -5.804  17.359  0.00  0.00    +0.000 A 
ATOM     34  N   UNL     1     -10.895  -4.521  17.823  0.00  0.00    +0.000 N 
BRANCH  30  38
ATOM     35  C   UNL     1     -11.052   0.570  16.795  0.00  0.00    +0.000 A 
ATOM     36  C   UNL     1      -9.896  -0.195  16.980  0.00  0.00    +0.000 A 
ATOM     37  C   UNL     1      -9.961  -1.595  16.963  0.00  0.00    +0.000 A 
ATOM     38  C   UNL     1     -11.182  -2.249  16.758  0.00  0.00    +0.000 A 
ATOM     39  C   UNL     1     -12.335  -1.472  16.582  0.00  0.00    +0.000 A 
ATOM     40  C   UNL     1     -12.271  -0.080  16.588  0.00  0.00    +0.000 A 
ATOM     41  H   UNL     1      -8.936   0.286  17.146  0.00  0.00    +0.000 HD
ATOM     42  H   UNL     1      -9.050  -2.171  17.118  0.00  0.00    +0.000 HD
ATOM     43  H   UNL     1     -13.310  -1.939  16.462  0.00  0.00    +0.000 HD
ATOM     44  H   UNL     1     -13.187   0.494  16.451  0.00  0.00    +0.000 HD
BRANCH  35  45
ATOM     45  C   UNL     1     -11.018   2.068  16.842  0.00  0.00    +0.000 C 
ATOM     46  H   UNL     1     -10.477   2.485  15.988  0.00  0.00    +0.000 HD
ATOM     47  H   UNL     1     -10.513   2.395  17.757  0.00  0.00    +0.000 HD
ATOM     48  H   UNL     1     -12.036   2.470  16.830  0.00  0.00    +0.000 HD
ENDBRANCH  35  45
ENDBRANCH  30  38
BRANCH  34  49
ATOM     49  N   UNL     1     -10.555  -4.127  19.177  0.00  0.00    +0.000 N 
ATOM     50  H   UNL     1     -10.669  -4.925  19.803  0.00  0.00    +0.000 HD
ATOM     51  H   UNL     1     -11.220  -3.428  19.511  0.00  0.00    +0.000 HD
ENDBRANCH  34  49
ENDBRANCH  29  33
ENDBRANCH   1  29
TORSDOF 7
ENDMDL
