MODEL 1
REMARK VINA RESULT:    -9.606      0.000      0.000
REMARK INTER + INTRA:         -13.035
REMARK INTER:                 -12.413
REMARK INTRA:                  -0.621
REMARK UNBOUND:                -0.621
REMARK  Name = 
REMARK  7 active torsions:
REMARK  status: ('A' for Active; 'I' for Inactive)
REMARK    1  A    between atoms: C_1  and  C_2
REMARK    2  A    between atoms: N_5  and  C_6
REMARK    3  A    between atoms: N_11  and  C_12
REMARK    4  A    between atoms: C_12  and  C_13
REMARK    5  A    between atoms: C_12  and  C_14
REMARK    6  A    between atoms: C_20  and  N_21
REMARK    7  A    between atoms: C_23  and  C_24
REMARK                            x       y       z     vdW  Elec       q    Type
REMARK                         _______ _______ _______ _____ _____    ______ ____
ROOT
ATOM      1  C   UNL     1     -10.585  -5.509  18.443  0.00  0.00    +0.000 A 
ATOM      2  N   UNL     1      -9.438  -5.108  19.009  0.00  0.00    +0.000 N 
ATOM      3  C   UNL     1      -8.535  -5.980  19.419  0.00  0.00    +0.000 A 
ATOM      4  N   UNL     1      -8.636  -7.304  19.250  0.00  0.00    +0.000 NA
ATOM      5  C   UNL     1      -9.743  -7.755  18.628  0.00  0.00    +0.000 A 
ATOM      6  N   UNL     1      -9.822  -9.109  18.293  0.00  0.00    +0.000 N 
ATOM      7  C   UNL     1     -10.776  -6.885  18.200  0.00  0.00    +0.000 A 
ATOM      8  H   UNL     1      -9.285  -4.098  19.096  0.00  0.00    +0.000 HD
ATOM      9  H   UNL     1      -7.653  -5.594  19.918  0.00  0.00    +0.000 HD
ATOM     10  H   UNL     1     -10.636  -9.570  18.687  0.00  0.00    +0.000 HD
ENDROOT
BRANCH   1  14
ATOM     11  C   UNL     1     -10.583  -3.445  14.806  0.00  0.00    +0.000 A 
ATOM     12  N   UNL     1     -10.493  -4.265  15.921  0.00  0.00    +0.000 NA
ATOM     13  C   UNL     1     -11.365  -3.888  16.839  0.00  0.00    +0.000 A 
ATOM     14  N   UNL     1     -11.503  -4.536  18.019  0.00  0.00    +0.000 N 
ATOM     15  S   UNL     1     -12.271  -2.489  16.451  0.00  0.00    +0.000 S 
ATOM     16  C   UNL     1     -11.483  -2.403  14.931  0.00  0.00    +0.000 A 
ATOM     17  H   UNL     1     -11.999  -4.070  18.774  0.00  0.00    +0.000 HD
BRANCH  11  18
ATOM     18  C   UNL     1      -9.726  -3.745  13.626  0.00  0.00    +0.000 C 
ATOM     19  H   UNL     1     -10.038  -3.152  12.760  0.00  0.00    +0.000 HD
ATOM     20  H   UNL     1      -9.799  -4.803  13.359  0.00  0.00    +0.000 HD
ATOM     21  H   UNL     1      -8.679  -3.504  13.840  0.00  0.00    +0.000 HD
ENDBRANCH  11  18
BRANCH  16  22
ATOM     22  C   UNL     1     -11.802  -1.318  13.958  0.00  0.00    +0.000 C 
ATOM     23  H   UNL     1     -11.442  -1.542  12.949  0.00  0.00    +0.000 HD
ATOM     24  H   UNL     1     -11.342  -0.376  14.276  0.00  0.00    +0.000 HD
ATOM     25  H   UNL     1     -12.885  -1.169  13.906  0.00  0.00    +0.000 HD
ENDBRANCH  16  22
ENDBRANCH   1  14
BRANCH   7  26
ATOM     26  N   UNL     1     -12.012  -7.374  17.709  0.00  0.00    +0.000 N 
ATOM     27  H   UNL     1     -12.763  -6.693  17.837  0.00  0.00    +0.000 HD
ATOM     28  H   UNL     1     -12.294  -8.273  18.095  0.00  0.00    +0.000 HD
ENDBRANCH   7  26
BRANCH   6  29
ATOM     29  C   UNL     1      -8.590  -9.919  18.335  0.00  0.00    +0.000 C 
ATOM     30  H   UNL     1      -7.710  -9.316  18.083  0.00  0.00    +0.000 HD
BRANCH  29  31
ATOM     31  C   UNL     1      -8.663 -11.039  17.307  0.00  0.00    +0.000 A 
ATOM     32  C   UNL     1      -8.856 -10.720  15.951  0.00  0.00    +0.000 A 
ATOM     33  C   UNL     1      -8.878 -11.719  14.977  0.00  0.00    +0.000 A 
ATOM     34  C   UNL     1      -8.711 -13.052  15.345  0.00  0.00    +0.000 A 
ATOM     35  C   UNL     1      -8.519 -13.385  16.683  0.00  0.00    +0.000 A 
ATOM     36  C   UNL     1      -8.491 -12.386  17.657  0.00  0.00    +0.000 A 
ATOM     37  H   UNL     1      -8.978  -9.684  15.636  0.00  0.00    +0.000 HD
ATOM     38  H   UNL     1      -9.016 -11.459  13.929  0.00  0.00    +0.000 HD
ATOM     39  H   UNL     1      -8.721 -13.831  14.587  0.00  0.00    +0.000 HD
ATOM     40  H   UNL     1      -8.382 -14.426  16.967  0.00  0.00    +0.000 HD
ATOM     41  H   UNL     1      -8.322 -12.675  18.690  0.00  0.00    +0.000 HD
ENDBRANCH  29  31
BRANCH  29  42
ATOM     42  C   UNL     1      -8.371 -10.512  19.729  0.00  0.00    +0.000 C 
ATOM     43  H   UNL     1      -7.306 -10.576  19.981  0.00  0.00    +0.000 HD
ATOM     44  H   UNL     1      -8.797 -11.518  19.805  0.00  0.00    +0.000 HD
ATOM     45  H   UNL     1      -8.851  -9.888  20.494  0.00  0.00    +0.000 HD
ENDBRANCH  29  42
ENDBRANCH   6  29
TORSDOF 7
ENDMDL
MODEL 2
REMARK VINA RESULT:    -9.459      2.624      3.312
REMARK INTER + INTRA:         -12.846
REMARK INTER:                 -11.961
REMARK INTRA:                  -0.884
REMARK UNBOUND:                -0.621
REMARK  Name = 
REMARK  7 active torsions:
REMARK  status: ('A' for Active; 'I' for Inactive)
REMARK    1  A    between atoms: C_1  and  C_2
REMARK    2  A    between atoms: N_5  and  C_6
REMARK    3  A    between atoms: N_11  and  C_12
REMARK    4  A    between atoms: C_12  and  C_13
REMARK    5  A    between atoms: C_12  and  C_14
REMARK    6  A    between atoms: C_20  and  N_21
REMARK    7  A    between atoms: C_23  and  C_24
REMARK                            x       y       z     vdW  Elec       q    Type
REMARK                         _______ _______ _______ _____ _____    ______ ____
ROOT
ATOM      1  C   UNL     1      -9.081  -4.580  18.748  0.00  0.00    +0.000 A 
ATOM      2  N   UNL     1      -7.806  -4.448  19.139  0.00  0.00    +0.000 N 
ATOM      3  C   UNL     1      -7.159  -5.447  19.711  0.00  0.00    +0.000 A 
ATOM      4  N   UNL     1      -7.667  -6.673  19.884  0.00  0.00    +0.000 NA
ATOM      5  C   UNL     1      -8.926  -6.876  19.450  0.00  0.00    +0.000 A 
ATOM      6  N   UNL     1      -9.443  -8.174  19.469  0.00  0.00    +0.000 N 
ATOM      7  C   UNL     1      -9.700  -5.842  18.867  0.00  0.00    +0.000 A 
ATOM      8  H   UNL     1      -7.351  -3.546  18.963  0.00  0.00    +0.000 HD
ATOM      9  H   UNL     1      -6.147  -5.259  20.054  0.00  0.00    +0.000 HD
ATOM     10  H   UNL     1     -10.302  -8.252  20.005  0.00  0.00    +0.000 HD
ENDROOT
BRANCH   1  14
ATOM     11  C   UNL     1     -10.287  -1.016  20.574  0.00  0.00    +0.000 A 
ATOM     12  N   UNL     1      -9.760  -2.210  20.104  0.00  0.00    +0.000 NA
ATOM     13  C   UNL     1     -10.117  -2.405  18.847  0.00  0.00    +0.000 A 
ATOM     14  N   UNL     1      -9.715  -3.486  18.138  0.00  0.00    +0.000 N 
ATOM     15  S   UNL     1     -11.166  -1.221  18.196  0.00  0.00    +0.000 S 
ATOM     16  C   UNL     1     -11.105  -0.357  19.675  0.00  0.00    +0.000 A 
ATOM     17  H   UNL     1     -10.207  -3.712  17.278  0.00  0.00    +0.000 HD
BRANCH  11  18
ATOM     18  C   UNL     1      -9.946  -0.577  21.955  0.00  0.00    +0.000 C 
ATOM     19  H   UNL     1      -9.060  -1.105  22.321  0.00  0.00    +0.000 HD
ATOM     20  H   UNL     1     -10.774  -0.786  22.639  0.00  0.00    +0.000 HD
ATOM     21  H   UNL     1      -9.732   0.496  21.976  0.00  0.00    +0.000 HD
ENDBRANCH  11  18
BRANCH  16  22
ATOM     22  C   UNL     1     -11.864   0.915  19.856  0.00  0.00    +0.000 C 
ATOM     23  H   UNL     1     -12.146   1.089  20.899  0.00  0.00    +0.000 HD
ATOM     24  H   UNL     1     -12.783   0.897  19.259  0.00  0.00    +0.000 HD
ATOM     25  H   UNL     1     -11.258   1.763  19.523  0.00  0.00    +0.000 HD
ENDBRANCH  16  22
ENDBRANCH   1  14
BRANCH   7  26
ATOM     26  N   UNL     1     -11.076  -6.009  18.574  0.00  0.00    +0.000 N 
ATOM     27  H   UNL     1     -11.463  -5.190  18.104  0.00  0.00    +0.000 HD
ATOM     28  H   UNL     1     -11.652  -6.248  19.379  0.00  0.00    +0.000 HD
ENDBRANCH   7  26
BRANCH   6  29
ATOM     29  C   UNL     1      -8.511  -9.301  19.653  0.00  0.00    +0.000 C 
ATOM     30  H   UNL     1      -7.469  -8.966  19.606  0.00  0.00    +0.000 HD
BRANCH  29  31
ATOM     31  C   UNL     1      -8.695 -10.321  18.539  0.00  0.00    +0.000 A 
ATOM     32  C   UNL     1      -9.230  -9.909  17.306  0.00  0.00    +0.000 A 
ATOM     33  C   UNL     1      -9.366 -10.808  16.248  0.00  0.00    +0.000 A 
ATOM     34  C   UNL     1      -8.971 -12.133  16.407  0.00  0.00    +0.000 A 
ATOM     35  C   UNL     1      -8.439 -12.560  17.622  0.00  0.00    +0.000 A 
ATOM     36  C   UNL     1      -8.298 -11.660  18.678  0.00  0.00    +0.000 A 
ATOM     37  H   UNL     1      -9.536  -8.874  17.153  0.00  0.00    +0.000 HD
ATOM     38  H   UNL     1      -9.770 -10.474  15.294  0.00  0.00    +0.000 HD
ATOM     39  H   UNL     1      -9.070 -12.834  15.582  0.00  0.00    +0.000 HD
ATOM     40  H   UNL     1      -8.125 -13.594  17.741  0.00  0.00    +0.000 HD
ATOM     41  H   UNL     1      -7.863 -12.017  19.608  0.00  0.00    +0.000 HD
ENDBRANCH  29  31
BRANCH  29  42
ATOM     42  C   UNL     1      -8.728  -9.976  21.011  0.00  0.00    +0.000 C 
ATOM     43  H   UNL     1      -9.759 -10.328  21.130  0.00  0.00    +0.000 HD
ATOM     44  H   UNL     1      -8.508  -9.289  21.835  0.00  0.00    +0.000 HD
ATOM     45  H   UNL     1      -8.070 -10.848  21.118  0.00  0.00    +0.000 HD
ENDBRANCH  29  42
ENDBRANCH   6  29
TORSDOF 7
ENDMDL
MODEL 3
REMARK VINA RESULT:    -9.411      2.328      3.466
REMARK INTER + INTRA:         -12.784
REMARK INTER:                 -12.102
REMARK INTRA:                  -0.681
REMARK UNBOUND:                -0.621
REMARK  Name = 
REMARK  7 active torsions:
REMARK  status: ('A' for Active; 'I' for Inactive)
REMARK    1  A    between atoms: C_1  and  C_2
REMARK    2  A    between atoms: N_5  and  C_6
REMARK    3  A    between atoms: N_11  and  C_12
REMARK    4  A    between atoms: C_12  and  C_13
REMARK    5  A    between atoms: C_12  and  C_14
REMARK    6  A    between atoms: C_20  and  N_21
REMARK    7  A    between atoms: C_23  and  C_24
REMARK                            x       y       z     vdW  Elec       q    Type
REMARK                         _______ _______ _______ _____ _____    ______ ____
ROOT
ATOM      1  C   UNL     1      -9.837  -6.013  18.481  0.00  0.00    +0.000 A 
ATOM      2  N   UNL     1     -11.125  -6.358  18.622  0.00  0.00    +0.000 N 
ATOM      3  C   UNL     1     -11.680  -7.264  17.837  0.00  0.00    +0.000 A 
ATOM      4  N   UNL     1     -11.018  -7.960  16.904  0.00  0.00    +0.000 NA
ATOM      5  C   UNL     1      -9.704  -7.696  16.766  0.00  0.00    +0.000 A 
ATOM      6  N   UNL     1      -8.941  -8.501  15.917  0.00  0.00    +0.000 N 
ATOM      7  C   UNL     1      -9.048  -6.707  17.540  0.00  0.00    +0.000 A 
ATOM      8  H   UNL     1     -11.656  -5.902  19.370  0.00  0.00    +0.000 HD
ATOM      9  H   UNL     1     -12.739  -7.460  17.965  0.00  0.00    +0.000 HD
ATOM     10  H   UNL     1      -8.466  -7.974  15.191  0.00  0.00    +0.000 HD
ENDROOT
BRANCH   1  14
ATOM     11  C   UNL     1     -10.541  -1.891  18.432  0.00  0.00    +0.000 A 
ATOM     12  N   UNL     1     -10.475  -3.275  18.367  0.00  0.00    +0.000 NA
ATOM     13  C   UNL     1      -9.553  -3.729  19.198  0.00  0.00    +0.000 A 
ATOM     14  N   UNL     1      -9.300  -5.050  19.349  0.00  0.00    +0.000 N 
ATOM     15  S   UNL     1      -8.665  -2.525  20.028  0.00  0.00    +0.000 S 
ATOM     16  C   UNL     1      -9.605  -1.310  19.267  0.00  0.00    +0.000 A 
ATOM     17  H   UNL     1      -8.434  -5.330  19.802  0.00  0.00    +0.000 HD
BRANCH  11  18
ATOM     18  C   UNL     1     -11.567  -1.184  17.617  0.00  0.00    +0.000 C 
ATOM     19  H   UNL     1     -12.092  -0.436  18.220  0.00  0.00    +0.000 HD
ATOM     20  H   UNL     1     -12.308  -1.894  17.235  0.00  0.00    +0.000 HD
ATOM     21  H   UNL     1     -11.100  -0.669  16.772  0.00  0.00    +0.000 HD
ENDBRANCH  11  18
BRANCH  16  22
ATOM     22  C   UNL     1      -9.363   0.136  19.542  0.00  0.00    +0.000 C 
ATOM     23  H   UNL     1      -9.346   0.361  20.613  0.00  0.00    +0.000 HD
ATOM     24  H   UNL     1     -10.149   0.746  19.083  0.00  0.00    +0.000 HD
ATOM     25  H   UNL     1      -8.401   0.442  19.117  0.00  0.00    +0.000 HD
ENDBRANCH  16  22
ENDBRANCH   1  14
BRANCH   7  26
ATOM     26  N   UNL     1      -7.715  -6.308  17.273  0.00  0.00    +0.000 N 
ATOM     27  H   UNL     1      -7.044  -6.844  17.825  0.00  0.00    +0.000 HD
ATOM     28  H   UNL     1      -7.541  -5.311  17.392  0.00  0.00    +0.000 HD
ENDBRANCH   7  26
BRANCH   6  29
ATOM     29  C   UNL     1      -9.511  -9.782  15.460  0.00  0.00    +0.000 C 
ATOM     30  H   UNL     1     -10.605  -9.777  15.529  0.00  0.00    +0.000 HD
BRANCH  29  31
ATOM     31  C   UNL     1      -9.020 -10.919  16.343  0.00  0.00    +0.000 A 
ATOM     32  C   UNL     1      -8.858 -10.702  17.723  0.00  0.00    +0.000 A 
ATOM     33  C   UNL     1      -8.457 -11.737  18.568  0.00  0.00    +0.000 A 
ATOM     34  C   UNL     1      -8.208 -13.004  18.046  0.00  0.00    +0.000 A 
ATOM     35  C   UNL     1      -8.363 -13.236  16.682  0.00  0.00    +0.000 A 
ATOM     36  C   UNL     1      -8.770 -12.204  15.837  0.00  0.00    +0.000 A 
ATOM     37  H   UNL     1      -9.057  -9.723  18.157  0.00  0.00    +0.000 HD
ATOM     38  H   UNL     1      -8.347 -11.560  19.636  0.00  0.00    +0.000 HD
ATOM     39  H   UNL     1      -7.902 -13.813  18.704  0.00  0.00    +0.000 HD
ATOM     40  H   UNL     1      -8.175 -14.228  16.278  0.00  0.00    +0.000 HD
ATOM     41  H   UNL     1      -8.899 -12.419  14.780  0.00  0.00    +0.000 HD
ENDBRANCH  29  31
BRANCH  29  42
ATOM     42  C   UNL     1      -9.134 -10.060  14.002  0.00  0.00    +0.000 C 
ATOM     43  H   UNL     1      -9.648 -10.945  13.611  0.00  0.00    +0.000 HD
ATOM     44  H   UNL     1      -8.056 -10.221  13.894  0.00  0.00    +0.000 HD
ATOM     45  H   UNL     1      -9.411  -9.212  13.363  0.00  0.00    +0.000 HD
ENDBRANCH  29  42
ENDBRANCH   6  29
TORSDOF 7
ENDMDL
MODEL 4
REMARK VINA RESULT:    -9.401      1.629      2.295
REMARK INTER + INTRA:         -12.770
REMARK INTER:                 -12.063
REMARK INTRA:                  -0.707
REMARK UNBOUND:                -0.621
REMARK  Name = 
REMARK  7 active torsions:
REMARK  status: ('A' for Active; 'I' for Inactive)
REMARK    1  A    between atoms: C_1  and  C_2
REMARK    2  A    between atoms: N_5  and  C_6
REMARK    3  A    between atoms: N_11  and  C_12
REMARK    4  A    between atoms: C_12  and  C_13
REMARK    5  A    between atoms: C_12  and  C_14
REMARK    6  A    between atoms: C_20  and  N_21
REMARK    7  A    between atoms: C_23  and  C_24
REMARK                            x       y       z     vdW  Elec       q    Type
REMARK                         _______ _______ _______ _____ _____    ______ ____
ROOT
ATOM      1  C   UNL     1      -9.637  -6.298  16.204  0.00  0.00    +0.000 A 
ATOM      2  N   UNL     1      -8.536  -5.894  16.853  0.00  0.00    +0.000 N 
ATOM      3  C   UNL     1      -7.890  -6.702  17.675  0.00  0.00    +0.000 A 
ATOM      4  N   UNL     1      -8.214  -7.984  17.879  0.00  0.00    +0.000 NA
ATOM      5  C   UNL     1      -9.277  -8.459  17.201  0.00  0.00    +0.000 A 
ATOM      6  N   UNL     1      -9.560  -9.826  17.263  0.00  0.00    +0.000 N 
ATOM      7  C   UNL     1     -10.046  -7.642  16.336  0.00  0.00    +0.000 A 
ATOM      8  H   UNL     1      -8.208  -4.939  16.674  0.00  0.00    +0.000 HD
ATOM      9  H   UNL     1      -7.038  -6.297  18.211  0.00  0.00    +0.000 HD
ATOM     10  H   UNL     1     -10.497 -10.022  17.598  0.00  0.00    +0.000 HD
ENDROOT
BRANCH   1  14
ATOM     11  C   UNL     1     -11.341  -2.610  17.195  0.00  0.00    +0.000 A 
ATOM     12  N   UNL     1     -10.665  -3.808  17.015  0.00  0.00    +0.000 NA
ATOM     13  C   UNL     1     -10.847  -4.256  15.785  0.00  0.00    +0.000 A 
ATOM     14  N   UNL     1     -10.276  -5.399  15.338  0.00  0.00    +0.000 N 
ATOM     15  S   UNL     1     -11.899  -3.317  14.816  0.00  0.00    +0.000 S 
ATOM     16  C   UNL     1     -12.091  -2.205  16.107  0.00  0.00    +0.000 A 
ATOM     17  H   UNL     1     -10.637  -5.821  14.487  0.00  0.00    +0.000 HD
BRANCH  11  18
ATOM     18  C   UNL     1     -11.210  -1.903  18.498  0.00  0.00    +0.000 C 
ATOM     19  H   UNL     1     -11.186  -0.818  18.350  0.00  0.00    +0.000 HD
ATOM     20  H   UNL     1     -10.284  -2.198  19.003  0.00  0.00    +0.000 HD
ATOM     21  H   UNL     1     -12.058  -2.136  19.149  0.00  0.00    +0.000 HD
ENDBRANCH  11  18
BRANCH  16  22
ATOM     22  C   UNL     1     -12.966  -1.005  15.965  0.00  0.00    +0.000 C 
ATOM     23  H   UNL     1     -13.949  -1.251  15.551  0.00  0.00    +0.000 HD
ATOM     24  H   UNL     1     -12.497  -0.269  15.302  0.00  0.00    +0.000 HD
ATOM     25  H   UNL     1     -13.119  -0.536  16.943  0.00  0.00    +0.000 HD
ENDBRANCH  16  22
ENDBRANCH   1  14
BRANCH   7  26
ATOM     26  N   UNL     1     -11.262  -8.092  15.764  0.00  0.00    +0.000 N 
ATOM     27  H   UNL     1     -11.977  -8.251  16.476  0.00  0.00    +0.000 HD
ATOM     28  H   UNL     1     -11.171  -8.919  15.177  0.00  0.00    +0.000 HD
ENDBRANCH   7  26
BRANCH   6  29
ATOM     29  C   UNL     1      -8.526 -10.735  17.791  0.00  0.00    +0.000 C 
ATOM     30  H   UNL     1      -7.521 -10.327  17.636  0.00  0.00    +0.000 HD
BRANCH  29  31
ATOM     31  C   UNL     1      -8.576 -12.068  17.057  0.00  0.00    +0.000 A 
ATOM     32  C   UNL     1      -8.755 -13.254  17.790  0.00  0.00    +0.000 A 
ATOM     33  C   UNL     1      -8.854 -14.486  17.144  0.00  0.00    +0.000 A 
ATOM     34  C   UNL     1      -8.773 -14.552  15.756  0.00  0.00    +0.000 A 
ATOM     35  C   UNL     1      -8.596 -13.387  15.013  0.00  0.00    +0.000 A 
ATOM     36  C   UNL     1      -8.503 -12.153  15.658  0.00  0.00    +0.000 A 
ATOM     37  H   UNL     1      -8.832 -13.228  18.877  0.00  0.00    +0.000 HD
ATOM     38  H   UNL     1      -9.005 -15.397  17.721  0.00  0.00    +0.000 HD
ATOM     39  H   UNL     1      -8.857 -15.511  15.250  0.00  0.00    +0.000 HD
ATOM     40  H   UNL     1      -8.541 -13.440  13.929  0.00  0.00    +0.000 HD
ATOM     41  H   UNL     1      -8.383 -11.260  15.052  0.00  0.00    +0.000 HD
ENDBRANCH  29  31
BRANCH  29  42
ATOM     42  C   UNL     1      -8.714 -10.967  19.293  0.00  0.00    +0.000 C 
ATOM     43  H   UNL     1      -8.318 -11.939  19.607  0.00  0.00    +0.000 HD
ATOM     44  H   UNL     1      -9.772 -10.927  19.572  0.00  0.00    +0.000 HD
ATOM     45  H   UNL     1      -8.187 -10.196  19.870  0.00  0.00    +0.000 HD
ENDBRANCH  29  42
ENDBRANCH   6  29
TORSDOF 7
ENDMDL
MODEL 5
REMARK VINA RESULT:    -9.207      2.734      4.712
REMARK INTER + INTRA:         -12.520
REMARK INTER:                 -13.173
REMARK INTRA:                   0.653
REMARK UNBOUND:                -0.621
REMARK  Name = 
REMARK  7 active torsions:
REMARK  status: ('A' for Active; 'I' for Inactive)
REMARK    1  A    between atoms: C_1  and  C_2
REMARK    2  A    between atoms: N_5  and  C_6
REMARK    3  A    between atoms: N_11  and  C_12
REMARK    4  A    between atoms: C_12  and  C_13
REMARK    5  A    between atoms: C_12  and  C_14
REMARK    6  A    between atoms: C_20  and  N_21
REMARK    7  A    between atoms: C_23  and  C_24
REMARK                            x       y       z     vdW  Elec       q    Type
REMARK                         _______ _______ _______ _____ _____    ______ ____
ROOT
ATOM      1  C   UNL     1      -9.065  -5.925  17.746  0.00  0.00    +0.000 A 
ATOM      2  N   UNL     1      -9.296  -5.480  16.503  0.00  0.00    +0.000 N 
ATOM      3  C   UNL     1      -9.264  -6.298  15.466  0.00  0.00    +0.000 A 
ATOM      4  N   UNL     1      -9.081  -7.621  15.556  0.00  0.00    +0.000 NA
ATOM      5  C   UNL     1      -8.908  -8.129  16.792  0.00  0.00    +0.000 A 
ATOM      6  N   UNL     1      -8.867  -9.517  16.950  0.00  0.00    +0.000 N 
ATOM      7  C   UNL     1      -8.884  -7.310  17.948  0.00  0.00    +0.000 A 
ATOM      8  H   UNL     1      -9.510  -4.484  16.392  0.00  0.00    +0.000 HD
ATOM      9  H   UNL     1      -9.405  -5.867  14.481  0.00  0.00    +0.000 HD
ATOM     10  H   UNL     1      -8.015  -9.840  17.396  0.00  0.00    +0.000 HD
ENDROOT
BRANCH   1  14
ATOM     11  C   UNL     1      -5.944  -4.838  20.308  0.00  0.00    +0.000 A 
ATOM     12  N   UNL     1      -6.846  -5.239  19.333  0.00  0.00    +0.000 NA
ATOM     13  C   UNL     1      -8.055  -4.784  19.613  0.00  0.00    +0.000 A 
ATOM     14  N   UNL     1      -9.120  -5.012  18.809  0.00  0.00    +0.000 N 
ATOM     15  S   UNL     1      -8.188  -3.933  21.092  0.00  0.00    +0.000 S 
ATOM     16  C   UNL     1      -6.507  -4.140  21.360  0.00  0.00    +0.000 A 
ATOM     17  H   UNL     1     -10.052  -4.859  19.184  0.00  0.00    +0.000 HD
BRANCH  11  18
ATOM     18  C   UNL     1      -4.508  -5.193  20.143  0.00  0.00    +0.000 C 
ATOM     19  H   UNL     1      -4.336  -6.243  20.402  0.00  0.00    +0.000 HD
ATOM     20  H   UNL     1      -3.883  -4.574  20.795  0.00  0.00    +0.000 HD
ATOM     21  H   UNL     1      -4.192  -5.046  19.105  0.00  0.00    +0.000 HD
ENDBRANCH  11  18
BRANCH  16  22
ATOM     22  C   UNL     1      -5.851  -3.601  22.586  0.00  0.00    +0.000 C 
ATOM     23  H   UNL     1      -4.767  -3.748  22.579  0.00  0.00    +0.000 HD
ATOM     24  H   UNL     1      -6.251  -4.094  23.479  0.00  0.00    +0.000 HD
ATOM     25  H   UNL     1      -6.046  -2.527  22.674  0.00  0.00    +0.000 HD
ENDBRANCH  16  22
ENDBRANCH   1  14
BRANCH   7  26
ATOM     26  N   UNL     1      -8.527  -7.820  19.221  0.00  0.00    +0.000 N 
ATOM     27  H   UNL     1      -9.047  -8.670  19.445  0.00  0.00    +0.000 HD
ATOM     28  H   UNL     1      -8.617  -7.151  19.983  0.00  0.00    +0.000 HD
ENDBRANCH   7  26
BRANCH   6  29
ATOM     29  C   UNL     1      -9.327 -10.367  15.836  0.00  0.00    +0.000 C 
ATOM     30  H   UNL     1     -10.410 -10.281  15.693  0.00  0.00    +0.000 HD
BRANCH  29  31
ATOM     31  C   UNL     1      -9.039 -11.830  16.139  0.00  0.00    +0.000 A 
ATOM     32  C   UNL     1      -8.991 -12.261  17.477  0.00  0.00    +0.000 A 
ATOM     33  C   UNL     1      -8.778 -13.605  17.788  0.00  0.00    +0.000 A 
ATOM     34  C   UNL     1      -8.606 -14.536  16.767  0.00  0.00    +0.000 A 
ATOM     35  C   UNL     1      -8.650 -14.126  15.437  0.00  0.00    +0.000 A 
ATOM     36  C   UNL     1      -8.869 -12.783  15.125  0.00  0.00    +0.000 A 
ATOM     37  H   UNL     1      -9.134 -11.555  18.294  0.00  0.00    +0.000 HD
ATOM     38  H   UNL     1      -8.756 -13.930  18.826  0.00  0.00    +0.000 HD
ATOM     39  H   UNL     1      -8.447 -15.584  17.007  0.00  0.00    +0.000 HD
ATOM     40  H   UNL     1      -8.522 -14.856  14.641  0.00  0.00    +0.000 HD
ATOM     41  H   UNL     1      -8.915 -12.496  14.078  0.00  0.00    +0.000 HD
ENDBRANCH  29  31
BRANCH  29  42
ATOM     42  C   UNL     1      -8.645  -9.967  14.524  0.00  0.00    +0.000 C 
ATOM     43  H   UNL     1      -7.570 -10.181  14.543  0.00  0.00    +0.000 HD
ATOM     44  H   UNL     1      -8.775  -8.900  14.318  0.00  0.00    +0.000 HD
ATOM     45  H   UNL     1      -9.074 -10.525  13.682  0.00  0.00    +0.000 HD
ENDBRANCH  29  42
ENDBRANCH   6  29
TORSDOF 7
ENDMDL
MODEL 6
REMARK VINA RESULT:    -9.197      3.667      5.539
REMARK INTER + INTRA:         -12.506
REMARK INTER:                 -12.121
REMARK INTRA:                  -0.386
REMARK UNBOUND:                -0.621
REMARK  Name = 
REMARK  7 active torsions:
REMARK  status: ('A' for Active; 'I' for Inactive)
REMARK    1  A    between atoms: C_1  and  C_2
REMARK    2  A    between atoms: N_5  and  C_6
REMARK    3  A    between atoms: N_11  and  C_12
REMARK    4  A    between atoms: C_12  and  C_13
REMARK    5  A    between atoms: C_12  and  C_14
REMARK    6  A    between atoms: C_20  and  N_21
REMARK    7  A    between atoms: C_23  and  C_24
REMARK                            x       y       z     vdW  Elec       q    Type
REMARK                         _______ _______ _______ _____ _____    ______ ____
ROOT
ATOM      1  C   UNL     1      -8.421  -3.862  19.923  0.00  0.00    +0.000 A 
ATOM      2  N   UNL     1      -9.606  -3.377  19.526  0.00  0.00    +0.000 N 
ATOM      3  C   UNL     1     -10.340  -4.011  18.630  0.00  0.00    +0.000 A 
ATOM      4  N   UNL     1     -10.024  -5.200  18.102  0.00  0.00    +0.000 NA
ATOM      5  C   UNL     1      -8.872  -5.762  18.516  0.00  0.00    +0.000 A 
ATOM      6  N   UNL     1      -8.576  -7.066  18.112  0.00  0.00    +0.000 N 
ATOM      7  C   UNL     1      -8.009  -5.122  19.440  0.00  0.00    +0.000 A 
ATOM      8  H   UNL     1      -9.924  -2.502  19.956  0.00  0.00    +0.000 HD
ATOM      9  H   UNL     1     -11.264  -3.539  18.311  0.00  0.00    +0.000 HD
ATOM     10  H   UNL     1      -7.688  -7.140  17.626  0.00  0.00    +0.000 HD
ENDROOT
BRANCH   1  14
ATOM     11  C   UNL     1      -9.843  -2.277  23.522  0.00  0.00    +0.000 A 
ATOM     12  N   UNL     1      -9.511  -2.927  22.342  0.00  0.00    +0.000 NA
ATOM     13  C   UNL     1      -8.273  -2.628  21.988  0.00  0.00    +0.000 A 
ATOM     14  N   UNL     1      -7.689  -3.149  20.883  0.00  0.00    +0.000 N 
ATOM     15  S   UNL     1      -7.482  -1.493  22.994  0.00  0.00    +0.000 S 
ATOM     16  C   UNL     1      -8.864  -1.429  24.006  0.00  0.00    +0.000 A 
ATOM     17  H   UNL     1      -6.846  -2.707  20.526  0.00  0.00    +0.000 HD
BRANCH  11  18
ATOM     18  C   UNL     1     -11.178  -2.534  24.129  0.00  0.00    +0.000 C 
ATOM     19  H   UNL     1     -11.900  -2.837  23.363  0.00  0.00    +0.000 HD
ATOM     20  H   UNL     1     -11.557  -1.630  24.616  0.00  0.00    +0.000 HD
ATOM     21  H   UNL     1     -11.116  -3.337  24.870  0.00  0.00    +0.000 HD
ENDBRANCH  11  18
BRANCH  16  22
ATOM     22  C   UNL     1      -8.897  -0.550  25.211  0.00  0.00    +0.000 C 
ATOM     23  H   UNL     1      -8.583   0.474  24.990  0.00  0.00    +0.000 HD
ATOM     24  H   UNL     1      -8.232  -0.945  25.987  0.00  0.00    +0.000 HD
ATOM     25  H   UNL     1      -9.913  -0.512  25.619  0.00  0.00    +0.000 HD
ENDBRANCH  16  22
ENDBRANCH   1  14
BRANCH   7  26
ATOM     26  N   UNL     1      -6.720  -5.631  19.738  0.00  0.00    +0.000 N 
ATOM     27  H   UNL     1      -6.132  -4.925  20.183  0.00  0.00    +0.000 HD
ATOM     28  H   UNL     1      -6.232  -6.034  18.941  0.00  0.00    +0.000 HD
ENDBRANCH   7  26
BRANCH   6  29
ATOM     29  C   UNL     1      -9.654  -7.884  17.526  0.00  0.00    +0.000 C 
ATOM     30  H   UNL     1     -10.589  -7.767  18.085  0.00  0.00    +0.000 HD
BRANCH  29  31
ATOM     31  C   UNL     1      -9.287  -9.360  17.590  0.00  0.00    +0.000 A 
ATOM     32  C   UNL     1      -9.446 -10.161  16.446  0.00  0.00    +0.000 A 
ATOM     33  C   UNL     1      -9.073 -11.505  16.456  0.00  0.00    +0.000 A 
ATOM     34  C   UNL     1      -8.538 -12.069  17.611  0.00  0.00    +0.000 A 
ATOM     35  C   UNL     1      -8.374 -11.291  18.754  0.00  0.00    +0.000 A 
ATOM     36  C   UNL     1      -8.741  -9.944  18.743  0.00  0.00    +0.000 A 
ATOM     37  H   UNL     1      -9.852  -9.741  15.526  0.00  0.00    +0.000 HD
ATOM     38  H   UNL     1      -9.189 -12.113  15.561  0.00  0.00    +0.000 HD
ATOM     39  H   UNL     1      -8.240 -13.115  17.619  0.00  0.00    +0.000 HD
ATOM     40  H   UNL     1      -7.949 -11.731  19.653  0.00  0.00    +0.000 HD
ATOM     41  H   UNL     1      -8.585  -9.358  19.643  0.00  0.00    +0.000 HD
ENDBRANCH  29  31
BRANCH  29  42
ATOM     42  C   UNL     1      -9.921  -7.481  16.073  0.00  0.00    +0.000 C 
ATOM     43  H   UNL     1      -9.114  -7.808  15.406  0.00  0.00    +0.000 HD
ATOM     44  H   UNL     1     -10.023  -6.396  15.974  0.00  0.00    +0.000 HD
ATOM     45  H   UNL     1     -10.850  -7.939  15.710  0.00  0.00    +0.000 HD
ENDBRANCH  29  42
ENDBRANCH   6  29
TORSDOF 7
ENDMDL
MODEL 7
REMARK VINA RESULT:    -9.069      2.749      4.585
REMARK INTER + INTRA:         -12.342
REMARK INTER:                 -12.976
REMARK INTRA:                   0.634
REMARK UNBOUND:                -0.621
REMARK  Name = 
REMARK  7 active torsions:
REMARK  status: ('A' for Active; 'I' for Inactive)
REMARK    1  A    between atoms: C_1  and  C_2
REMARK    2  A    between atoms: N_5  and  C_6
REMARK    3  A    between atoms: N_11  and  C_12
REMARK    4  A    between atoms: C_12  and  C_13
REMARK    5  A    between atoms: C_12  and  C_14
REMARK    6  A    between atoms: C_20  and  N_21
REMARK    7  A    between atoms: C_23  and  C_24
REMARK                            x       y       z     vdW  Elec       q    Type
REMARK                         _______ _______ _______ _____ _____    ______ ____
ROOT
ATOM      1  C   UNL     1     -10.146  -5.827  18.214  0.00  0.00    +0.000 A 
ATOM      2  N   UNL     1     -11.274  -6.362  18.700  0.00  0.00    +0.000 N 
ATOM      3  C   UNL     1     -11.846  -7.400  18.117  0.00  0.00    +0.000 A 
ATOM      4  N   UNL     1     -11.335  -8.048  17.063  0.00  0.00    +0.000 NA
ATOM      5  C   UNL     1     -10.167  -7.588  16.574  0.00  0.00    +0.000 A 
ATOM      6  N   UNL     1      -9.519  -8.321  15.576  0.00  0.00    +0.000 N 
ATOM      7  C   UNL     1      -9.516  -6.453  17.118  0.00  0.00    +0.000 A 
ATOM      8  H   UNL     1     -11.666  -5.942  19.549  0.00  0.00    +0.000 HD
ATOM      9  H   UNL     1     -12.787  -7.752  18.527  0.00  0.00    +0.000 HD
ATOM     10  H   UNL     1      -9.344  -7.780  14.736  0.00  0.00    +0.000 HD
ENDROOT
BRANCH   1  14
ATOM     11  C   UNL     1      -6.277  -5.540  19.776  0.00  0.00    +0.000 A 
ATOM     12  N   UNL     1      -7.489  -5.760  19.139  0.00  0.00    +0.000 NA
ATOM     13  C   UNL     1      -8.330  -4.775  19.400  0.00  0.00    +0.000 A 
ATOM     14  N   UNL     1      -9.579  -4.730  18.881  0.00  0.00    +0.000 N 
ATOM     15  S   UNL     1      -7.745  -3.587  20.484  0.00  0.00    +0.000 S 
ATOM     16  C   UNL     1      -6.246  -4.414  20.578  0.00  0.00    +0.000 A 
ATOM     17  H   UNL     1     -10.256  -4.097  19.299  0.00  0.00    +0.000 HD
BRANCH  11  18
ATOM     18  C   UNL     1      -5.166  -6.506  19.556  0.00  0.00    +0.000 C 
ATOM     19  H   UNL     1      -5.560  -7.499  19.315  0.00  0.00    +0.000 HD
ATOM     20  H   UNL     1      -4.550  -6.592  20.456  0.00  0.00    +0.000 HD
ATOM     21  H   UNL     1      -4.535  -6.183  18.722  0.00  0.00    +0.000 HD
ENDBRANCH  11  18
BRANCH  16  22
ATOM     22  C   UNL     1      -5.136  -3.901  21.433  0.00  0.00    +0.000 C 
ATOM     23  H   UNL     1      -4.997  -4.498  22.339  0.00  0.00    +0.000 HD
ATOM     24  H   UNL     1      -5.338  -2.869  21.738  0.00  0.00    +0.000 HD
ATOM     25  H   UNL     1      -4.196  -3.913  20.872  0.00  0.00    +0.000 HD
ENDBRANCH  16  22
ENDBRANCH   1  14
BRANCH   7  26
ATOM     26  N   UNL     1      -8.385  -5.867  16.495  0.00  0.00    +0.000 N 
ATOM     27  H   UNL     1      -8.554  -5.683  15.505  0.00  0.00    +0.000 HD
ATOM     28  H   UNL     1      -7.522  -6.396  16.605  0.00  0.00    +0.000 HD
ENDBRANCH   7  26
BRANCH   6  29
ATOM     29  C   UNL     1      -9.956  -9.706  15.324  0.00  0.00    +0.000 C 
ATOM     30  H   UNL     1     -11.037  -9.814  15.471  0.00  0.00    +0.000 HD
BRANCH  29  31
ATOM     31  C   UNL     1      -9.283 -10.656  16.304  0.00  0.00    +0.000 A 
ATOM     32  C   UNL     1      -9.042 -10.231  17.622  0.00  0.00    +0.000 A 
ATOM     33  C   UNL     1      -8.471 -11.093  18.559  0.00  0.00    +0.000 A 
ATOM     34  C   UNL     1      -8.130 -12.392  18.190  0.00  0.00    +0.000 A 
ATOM     35  C   UNL     1      -8.361 -12.829  16.889  0.00  0.00    +0.000 A 
ATOM     36  C   UNL     1      -8.938 -11.970  15.953  0.00  0.00    +0.000 A 
ATOM     37  H   UNL     1      -9.309  -9.223  17.938  0.00  0.00    +0.000 HD
ATOM     38  H   UNL     1      -8.300 -10.757  19.580  0.00  0.00    +0.000 HD
ATOM     39  H   UNL     1      -7.691 -13.067  18.921  0.00  0.00    +0.000 HD
ATOM     40  H   UNL     1      -8.101 -13.846  16.606  0.00  0.00    +0.000 HD
ATOM     41  H   UNL     1      -9.122 -12.344  14.950  0.00  0.00    +0.000 HD
ENDBRANCH  29  31
BRANCH  29  42
ATOM     42  C   UNL     1      -9.632 -10.130  13.888  0.00  0.00    +0.000 C 
ATOM     43  H   UNL     1      -8.595  -9.896  13.620  0.00  0.00    +0.000 HD
ATOM     44  H   UNL     1     -10.289  -9.631  13.169  0.00  0.00    +0.000 HD
ATOM     45  H   UNL     1      -9.765 -11.213  13.767  0.00  0.00    +0.000 HD
ENDBRANCH  29  42
ENDBRANCH   6  29
TORSDOF 7
ENDMDL
MODEL 8
REMARK VINA RESULT:    -8.942      2.175      2.756
REMARK INTER + INTRA:         -12.178
REMARK INTER:                 -11.613
REMARK INTRA:                  -0.565
REMARK UNBOUND:                -0.621
REMARK  Name = 
REMARK  7 active torsions:
REMARK  status: ('A' for Active; 'I' for Inactive)
REMARK    1  A    between atoms: C_1  and  C_2
REMARK    2  A    between atoms: N_5  and  C_6
REMARK    3  A    between atoms: N_11  and  C_12
REMARK    4  A    between atoms: C_12  and  C_13
REMARK    5  A    between atoms: C_12  and  C_14
REMARK    6  A    between atoms: C_20  and  N_21
REMARK    7  A    between atoms: C_23  and  C_24
REMARK                            x       y       z     vdW  Elec       q    Type
REMARK                         _______ _______ _______ _____ _____    ______ ____
ROOT
ATOM      1  C   UNL     1      -9.988  -4.531  17.831  0.00  0.00    +0.000 A 
ATOM      2  N   UNL     1      -8.846  -4.165  18.430  0.00  0.00    +0.000 N 
ATOM      3  C   UNL     1      -8.148  -5.022  19.153  0.00  0.00    +0.000 A 
ATOM      4  N   UNL     1      -8.457  -6.317  19.294  0.00  0.00    +0.000 NA
ATOM      5  C   UNL     1      -9.563  -6.751  18.658  0.00  0.00    +0.000 A 
ATOM      6  N   UNL     1      -9.841  -8.120  18.649  0.00  0.00    +0.000 N 
ATOM      7  C   UNL     1     -10.388  -5.882  17.901  0.00  0.00    +0.000 A 
ATOM      8  H   UNL     1      -8.531  -3.200  18.293  0.00  0.00    +0.000 HD
ATOM      9  H   UNL     1      -7.262  -4.650  19.657  0.00  0.00    +0.000 HD
ATOM     10  H   UNL     1     -10.755  -8.342  19.031  0.00  0.00    +0.000 HD
ENDROOT
BRANCH   1  14
ATOM     11  C   UNL     1     -10.675  -0.523  18.808  0.00  0.00    +0.000 A 
ATOM     12  N   UNL     1     -10.296  -1.840  18.593  0.00  0.00    +0.000 NA
ATOM     13  C   UNL     1     -10.896  -2.320  17.519  0.00  0.00    +0.000 A 
ATOM     14  N   UNL     1     -10.683  -3.579  17.070  0.00  0.00    +0.000 N 
ATOM     15  S   UNL     1     -12.003  -1.254  16.766  0.00  0.00    +0.000 S 
ATOM     16  C   UNL     1     -11.623  -0.047  17.922  0.00  0.00    +0.000 A 
ATOM     17  H   UNL     1     -11.340  -3.974  16.402  0.00  0.00    +0.000 HD
BRANCH  11  18
ATOM     18  C   UNL     1     -10.056   0.225  19.937  0.00  0.00    +0.000 C 
ATOM     19  H   UNL     1      -9.130  -0.260  20.261  0.00  0.00    +0.000 HD
ATOM     20  H   UNL     1     -10.739   0.262  20.791  0.00  0.00    +0.000 HD
ATOM     21  H   UNL     1      -9.812   1.248  19.633  0.00  0.00    +0.000 HD
ENDBRANCH  11  18
BRANCH  16  22
ATOM     22  C   UNL     1     -12.282   1.291  17.883  0.00  0.00    +0.000 C 
ATOM     23  H   UNL     1     -12.777   1.485  16.927  0.00  0.00    +0.000 HD
ATOM     24  H   UNL     1     -11.541   2.083  18.043  0.00  0.00    +0.000 HD
ATOM     25  H   UNL     1     -13.034   1.362  18.675  0.00  0.00    +0.000 HD
ENDBRANCH  16  22
ENDBRANCH   1  14
BRANCH   7  26
ATOM     26  N   UNL     1     -11.640  -6.299  17.383  0.00  0.00    +0.000 N 
ATOM     27  H   UNL     1     -11.781  -5.965  16.428  0.00  0.00    +0.000 HD
ATOM     28  H   UNL     1     -12.440  -6.044  17.958  0.00  0.00    +0.000 HD
ENDBRANCH   7  26
BRANCH   6  29
ATOM     29  C   UNL     1      -8.775  -9.058  19.045  0.00  0.00    +0.000 C 
ATOM     30  H   UNL     1      -7.787  -8.590  18.971  0.00  0.00    +0.000 HD
BRANCH  29  31
ATOM     31  C   UNL     1      -8.762 -10.261  18.113  0.00  0.00    +0.000 A 
ATOM     32  C   UNL     1      -8.385 -11.519  18.615  0.00  0.00    +0.000 A 
ATOM     33  C   UNL     1      -8.409 -12.651  17.800  0.00  0.00    +0.000 A 
ATOM     34  C   UNL     1      -8.807 -12.542  16.470  0.00  0.00    +0.000 A 
ATOM     35  C   UNL     1      -9.182 -11.303  15.956  0.00  0.00    +0.000 A 
ATOM     36  C   UNL     1      -9.165 -10.172  16.772  0.00  0.00    +0.000 A 
ATOM     37  H   UNL     1      -8.081 -11.633  19.655  0.00  0.00    +0.000 HD
ATOM     38  H   UNL     1      -8.128 -13.622  18.203  0.00  0.00    +0.000 HD
ATOM     39  H   UNL     1      -8.832 -13.424  15.835  0.00  0.00    +0.000 HD
ATOM     40  H   UNL     1      -9.499 -11.222  14.919  0.00  0.00    +0.000 HD
ATOM     41  H   UNL     1      -9.480  -9.222  16.349  0.00  0.00    +0.000 HD
ENDBRANCH  29  31
BRANCH  29  42
ATOM     42  C   UNL     1      -8.967  -9.527  20.490  0.00  0.00    +0.000 C 
ATOM     43  H   UNL     1      -9.320 -10.563  20.538  0.00  0.00    +0.000 HD
ATOM     44  H   UNL     1      -9.692  -8.899  21.019  0.00  0.00    +0.000 HD
ATOM     45  H   UNL     1      -8.019  -9.478  21.041  0.00  0.00    +0.000 HD
ENDBRANCH  29  42
ENDBRANCH   6  29
TORSDOF 7
ENDMDL
MODEL 9
REMARK VINA RESULT:    -8.868      3.276      8.163
REMARK INTER + INTRA:         -12.082
REMARK INTER:                 -11.532
REMARK INTRA:                  -0.550
REMARK UNBOUND:                -0.621
REMARK  Name = 
REMARK  7 active torsions:
REMARK  status: ('A' for Active; 'I' for Inactive)
REMARK    1  A    between atoms: C_1  and  C_2
REMARK    2  A    between atoms: N_5  and  C_6
REMARK    3  A    between atoms: N_11  and  C_12
REMARK    4  A    between atoms: C_12  and  C_13
REMARK    5  A    between atoms: C_12  and  C_14
REMARK    6  A    between atoms: C_20  and  N_21
REMARK    7  A    between atoms: C_23  and  C_24
REMARK                            x       y       z     vdW  Elec       q    Type
REMARK                         _______ _______ _______ _____ _____    ______ ____
ROOT
ATOM      1  C   UNL     1      -8.883  -8.340  17.834  0.00  0.00    +0.000 A 
ATOM      2  N   UNL     1      -9.213  -8.907  19.003  0.00  0.00    +0.000 N 
ATOM      3  C   UNL     1      -8.972  -8.300  20.151  0.00  0.00    +0.000 A 
ATOM      4  N   UNL     1      -8.463  -7.067  20.258  0.00  0.00    +0.000 NA
ATOM      5  C   UNL     1      -8.173  -6.427  19.109  0.00  0.00    +0.000 A 
ATOM      6  N   UNL     1      -7.784  -5.086  19.166  0.00  0.00    +0.000 N 
ATOM      7  C   UNL     1      -8.361  -7.029  17.841  0.00  0.00    +0.000 A 
ATOM      8  H   UNL     1      -9.671  -9.824  18.968  0.00  0.00    +0.000 HD
ATOM      9  H   UNL     1      -9.214  -8.836  21.063  0.00  0.00    +0.000 HD
ATOM     10  H   UNL     1      -6.880  -4.916  18.737  0.00  0.00    +0.000 HD
ENDROOT
BRANCH   1  14
ATOM     11  C   UNL     1      -8.643 -12.464  17.182  0.00  0.00    +0.000 A 
ATOM     12  N   UNL     1      -8.750 -11.138  17.578  0.00  0.00    +0.000 NA
ATOM     13  C   UNL     1      -8.996 -10.367  16.534  0.00  0.00    +0.000 A 
ATOM     14  N   UNL     1      -9.170  -9.029  16.646  0.00  0.00    +0.000 N 
ATOM     15  S   UNL     1      -9.027 -11.171  15.025  0.00  0.00    +0.000 S 
ATOM     16  C   UNL     1      -8.740 -12.664  15.818  0.00  0.00    +0.000 A 
ATOM     17  H   UNL     1      -9.111  -8.460  15.806  0.00  0.00    +0.000 HD
BRANCH  11  18
ATOM     18  C   UNL     1      -8.431 -13.507  18.223  0.00  0.00    +0.000 C 
ATOM     19  H   UNL     1      -8.523 -13.077  19.226  0.00  0.00    +0.000 HD
ATOM     20  H   UNL     1      -7.432 -13.943  18.129  0.00  0.00    +0.000 HD
ATOM     21  H   UNL     1      -9.177 -14.303  18.127  0.00  0.00    +0.000 HD
ENDBRANCH  11  18
BRANCH  16  22
ATOM     22  C   UNL     1      -8.630 -13.937  15.047  0.00  0.00    +0.000 C 
ATOM     23  H   UNL     1      -9.605 -14.323  14.736  0.00  0.00    +0.000 HD
ATOM     24  H   UNL     1      -8.142 -14.707  15.655  0.00  0.00    +0.000 HD
ATOM     25  H   UNL     1      -8.025 -13.779  14.148  0.00  0.00    +0.000 HD
ENDBRANCH  16  22
ENDBRANCH   1  14
BRANCH   7  26
ATOM     26  N   UNL     1      -7.892  -6.426  16.647  0.00  0.00    +0.000 N 
ATOM     27  H   UNL     1      -8.642  -6.315  15.962  0.00  0.00    +0.000 HD
ATOM     28  H   UNL     1      -7.101  -6.902  16.217  0.00  0.00    +0.000 HD
ENDBRANCH   7  26
BRANCH   6  29
ATOM     29  C   UNL     1      -8.011  -4.338  20.416  0.00  0.00    +0.000 C 
ATOM     30  H   UNL     1      -8.624  -4.915  21.118  0.00  0.00    +0.000 HD
BRANCH  29  31
ATOM     31  C   UNL     1      -8.767  -3.050  20.128  0.00  0.00    +0.000 A 
ATOM     32  C   UNL     1      -9.592  -2.973  18.992  0.00  0.00    +0.000 A 
ATOM     33  C   UNL     1     -10.338  -1.824  18.725  0.00  0.00    +0.000 A 
ATOM     34  C   UNL     1     -10.268  -0.734  19.589  0.00  0.00    +0.000 A 
ATOM     35  C   UNL     1      -9.456  -0.793  20.719  0.00  0.00    +0.000 A 
ATOM     36  C   UNL     1      -8.715  -1.944  20.989  0.00  0.00    +0.000 A 
ATOM     37  H   UNL     1      -9.673  -3.817  18.306  0.00  0.00    +0.000 HD
ATOM     38  H   UNL     1     -10.982  -1.781  17.849  0.00  0.00    +0.000 HD
ATOM     39  H   UNL     1     -10.853   0.159  19.387  0.00  0.00    +0.000 HD
ATOM     40  H   UNL     1      -9.408   0.056  21.396  0.00  0.00    +0.000 HD
ATOM     41  H   UNL     1      -8.104  -1.968  21.887  0.00  0.00    +0.000 HD
ENDBRANCH  29  31
BRANCH  29  42
ATOM     42  C   UNL     1      -6.684  -4.014  21.109  0.00  0.00    +0.000 C 
ATOM     43  H   UNL     1      -6.096  -4.917  21.306  0.00  0.00    +0.000 HD
ATOM     44  H   UNL     1      -6.849  -3.502  22.063  0.00  0.00    +0.000 HD
ATOM     45  H   UNL     1      -6.071  -3.356  20.479  0.00  0.00    +0.000 HD
ENDBRANCH  29  42
ENDBRANCH   6  29
TORSDOF 7
ENDMDL
