REMARK  Name = 
REMARK  6 active torsions:
REMARK  status: ('A' for Active; 'I' for Inactive)
REMARK    1  A    between atoms: C_1  and  C_2
REMARK    2  A    between atoms: C_2  and  N_3
REMARK    3  A    between atoms: N_8  and  C_9
REMARK    4  A    between atoms: N_18  and  C_19
REMARK    5  A    between atoms: C_19  and  C_20
REMARK    6  A    between atoms: C_20  and  N_21
REMARK                            x       y       z     vdW  Elec       q    Type
REMARK                         _______ _______ _______ _____ _____    ______ ____
ROOT
ATOM      1  N   UNL     1      -0.794   0.545   2.827  0.00  0.00    +0.000 N 
ATOM      2  C   UNL     1      -1.003  -0.806   2.881  0.00  0.00    +0.000 A 
ATOM      3  N   UNL     1      -0.583  -1.404   1.790  0.00  0.00    +0.000 NA
ATOM      4  C   UNL     1      -0.051  -0.402   1.012  0.00  0.00    +0.000 A 
ATOM      5  C   UNL     1       0.572  -0.409  -0.250  0.00  0.00    +0.000 A 
ATOM      6  N   UNL     1       0.703  -1.549  -1.047  0.00  0.00    +0.000 N 
ATOM      7  N   UNL     1       1.123   0.761  -0.692  0.00  0.00    +0.000 NA
ATOM      8  C   UNL     1       0.928   1.895   0.025  0.00  0.00    +0.000 A 
ATOM      9  N   UNL     1       1.513   3.067  -0.448  0.00  0.00    +0.000 N 
ATOM     10  N   UNL     1       0.298   2.002   1.199  0.00  0.00    +0.000 NA
ATOM     11  C   UNL     1      -0.148   0.820   1.651  0.00  0.00    +0.000 A 
ATOM     12  H   UNL     1      -1.471  -1.298   3.727  0.00  0.00    +0.000 HD
ATOM     13  H   UNL     1       1.539  -1.601  -1.603  0.00  0.00    +0.000 HD
ATOM     14  H   UNL     1       1.093   3.802   0.127  0.00  0.00    +0.000 HD
ENDROOT
BRANCH   6  15
ATOM     15  C   UNL     1      -0.184  -2.631  -1.190  0.00  0.00    +0.000 A 
ATOM     16  C   UNL     1       0.325  -3.904  -1.479  0.00  0.00    +0.000 A 
ATOM     17  C   UNL     1      -0.522  -5.013  -1.564  0.00  0.00    +0.000 A 
ATOM     18  C   UNL     1      -1.893  -4.862  -1.362  0.00  0.00    +0.000 A 
ATOM     19  C   UNL     1      -2.407  -3.604  -1.070  0.00  0.00    +0.000 A 
ATOM     20 CL   UNL     1      -4.100  -3.406  -0.820  0.00  0.00    +0.000 Cl
ATOM     21  C   UNL     1      -1.564  -2.498  -0.977  0.00  0.00    +0.000 A 
ATOM     22  H   UNL     1       1.393  -4.055  -1.609  0.00  0.00    +0.000 HD
ATOM     23  H   UNL     1      -0.112  -5.998  -1.771  0.00  0.00    +0.000 HD
ATOM     24  H   UNL     1      -2.548  -5.728  -1.424  0.00  0.00    +0.000 HD
ATOM     25  H   UNL     1      -1.998  -1.531  -0.743  0.00  0.00    +0.000 HD
ENDBRANCH   6  15
BRANCH   1  26
ATOM     26  C   UNL     1      -1.207   1.492   3.839  0.00  0.00    +0.000 C 
ATOM     27  H   UNL     1      -1.129   0.992   4.813  0.00  0.00    +0.000 HD
ATOM     28  H   UNL     1      -0.500   2.328   3.837  0.00  0.00    +0.000 HD
BRANCH  26  29
ATOM     29  C   UNL     1      -2.626   1.976   3.604  0.00  0.00    +0.000 C 
ATOM     30  H   UNL     1      -2.927   2.675   4.390  0.00  0.00    +0.000 HD
ATOM     31  H   UNL     1      -3.333   1.139   3.601  0.00  0.00    +0.000 HD
ATOM     32  H   UNL     1      -2.712   2.486   2.638  0.00  0.00    +0.000 HD
ENDBRANCH  26  29
ENDBRANCH   1  26
BRANCH   9  33
ATOM     33  C   UNL     1       1.421   3.319  -1.886  0.00  0.00    +0.000 C 
ATOM     34  H   UNL     1       1.281   4.395  -2.041  0.00  0.00    +0.000 HD
ATOM     35  H   UNL     1       0.554   2.821  -2.338  0.00  0.00    +0.000 HD
BRANCH  33  36
ATOM     36  C   UNL     1       2.724   2.904  -2.596  0.00  0.00    +0.000 C 
ATOM     37  H   UNL     1       3.583   3.445  -2.190  0.00  0.00    +0.000 HD
ATOM     38  H   UNL     1       2.668   3.060  -3.676  0.00  0.00    +0.000 HD
BRANCH  36  39
ATOM     39  N   UNL     1       3.000   1.466  -2.371  0.00  0.00    +0.000 N 
ATOM     40  H   UNL     1       2.957   1.288  -1.353  0.00  0.00    +0.000 HD
ATOM     41  H   UNL     1       3.902   1.142  -2.727  0.00  0.00    +0.000 HD
ATOM     42  H   UNL     1       2.237   0.878  -2.736  0.00  0.00    +0.000 HD
ENDBRANCH  36  39
ENDBRANCH  33  36
ENDBRANCH   9  33
TORSDOF 6
