MODEL 1
REMARK VINA RESULT:    -9.597      0.000      0.000
REMARK INTER + INTRA:         -11.790
REMARK INTER:                 -11.842
REMARK INTRA:                   0.051
REMARK UNBOUND:                 0.051
REMARK  Name = 
REMARK  5 active torsions:
REMARK  status: ('A' for Active; 'I' for Inactive)
REMARK    1  A    between atoms: C_1  and  C_2
REMARK    2  A    between atoms: C_6  and  N_7
REMARK    3  A    between atoms: N_7  and  C_8
REMARK    4  A    between atoms: N_13  and  C_14
REMARK    5  A    between atoms: C_24  and  N_25
REMARK                            x       y       z     vdW  Elec       q    Type
REMARK                         _______ _______ _______ _____ _____    ______ ____
ROOT
ATOM      1  C   UNL     1     -10.752  -7.531  17.002  0.00  0.00    +0.000 A 
ATOM      2  N   UNL     1     -10.105  -7.836  18.129  0.00  0.00    +0.000 N 
ATOM      3  C   UNL     1      -9.713  -6.884  18.961  0.00  0.00    +0.000 A 
ATOM      4  N   UNL     1      -9.927  -5.577  18.747  0.00  0.00    +0.000 NA
ATOM      5  C   UNL     1     -10.621  -5.222  17.650  0.00  0.00    +0.000 A 
ATOM      6  N   UNL     1     -10.919  -3.873  17.401  0.00  0.00    +0.000 N 
ATOM      7  C   UNL     1     -11.124  -6.194  16.758  0.00  0.00    +0.000 A 
ATOM      8  H   UNL     1      -9.869  -8.823  18.272  0.00  0.00    +0.000 HD
ATOM      9  H   UNL     1      -9.167  -7.177  19.847  0.00  0.00    +0.000 HD
ATOM     10  H   UNL     1     -10.530  -3.592  16.501  0.00  0.00    +0.000 HD
ENDROOT
BRANCH   6  11
ATOM     11  C   UNL     1     -10.699  -2.857  18.457  0.00  0.00    +0.000 C 
ATOM     12  C   UNL     1      -9.280  -2.940  19.073  0.00  0.00    +0.000 C 
ATOM     13  C   UNL     1      -9.112  -1.880  20.178  0.00  0.00    +0.000 C 
ATOM     14  C   UNL     1      -9.257  -0.478  19.566  0.00  0.00    +0.000 C 
ATOM     15  C   UNL     1     -10.635  -0.340  18.898  0.00  0.00    +0.000 C 
ATOM     16  C   UNL     1     -11.712  -0.502  19.983  0.00  0.00    +0.000 C 
ATOM     17  C   UNL     1     -11.602  -1.888  20.624  0.00  0.00    +0.000 C 
ATOM     18  C   UNL     1     -10.206  -2.087  21.241  0.00  0.00    +0.000 C 
ATOM     19  C   UNL     1     -11.815  -2.940  19.534  0.00  0.00    +0.000 C 
ATOM     20  C   UNL     1     -10.807  -1.438  17.821  0.00  0.00    +0.000 C 
ATOM     21  H   UNL     1      -8.521  -2.784  18.293  0.00  0.00    +0.000 HD
ATOM     22  H   UNL     1      -9.072  -3.929  19.495  0.00  0.00    +0.000 HD
ATOM     23  H   UNL     1      -8.123  -1.980  20.642  0.00  0.00    +0.000 HD
ATOM     24  H   UNL     1      -8.462  -0.301  18.832  0.00  0.00    +0.000 HD
ATOM     25  H   UNL     1      -9.141   0.283  20.349  0.00  0.00    +0.000 HD
ATOM     26  H   UNL     1     -10.725   0.649  18.437  0.00  0.00    +0.000 HD
ATOM     27  H   UNL     1     -12.709  -0.367  19.546  0.00  0.00    +0.000 HD
ATOM     28  H   UNL     1     -11.595   0.271  20.752  0.00  0.00    +0.000 HD
ATOM     29  H   UNL     1     -12.369  -2.005  21.397  0.00  0.00    +0.000 HD
ATOM     30  H   UNL     1     -10.125  -3.098  21.665  0.00  0.00    +0.000 HD
ATOM     31  H   UNL     1     -10.063  -1.384  22.068  0.00  0.00    +0.000 HD
ATOM     32  H   UNL     1     -12.797  -2.802  19.059  0.00  0.00    +0.000 HD
ATOM     33  H   UNL     1     -11.859  -3.915  20.022  0.00  0.00    +0.000 HD
ATOM     34  H   UNL     1     -10.044  -1.309  17.040  0.00  0.00    +0.000 HD
ATOM     35  H   UNL     1     -11.778  -1.318  17.321  0.00  0.00    +0.000 HD
ENDBRANCH   6  11
BRANCH   7  36
ATOM     36  N   UNL     1     -11.776  -5.828  15.551  0.00  0.00    +0.000 N 
ATOM     37  H   UNL     1     -11.477  -4.887  15.269  0.00  0.00    +0.000 HD
ATOM     38  H   UNL     1     -12.792  -5.851  15.621  0.00  0.00    +0.000 HD
ENDBRANCH   7  36
BRANCH   1  39
ATOM     39  N   UNL     1     -11.054  -8.560  16.087  0.00  0.00    +0.000 N 
ATOM     40  H   UNL     1     -11.271  -8.132  15.187  0.00  0.00    +0.000 HD
BRANCH  39  45
ATOM     41  C   UNL     1      -9.040 -11.494  16.769  0.00  0.00    +0.000 A 
ATOM     42  C   UNL     1      -8.388 -11.706  15.560  0.00  0.00    +0.000 A 
ATOM     43  C   UNL     1      -8.681 -10.875  14.487  0.00  0.00    +0.000 A 
ATOM     44  C   UNL     1      -9.607  -9.851  14.647  0.00  0.00    +0.000 A 
ATOM     45  C   UNL     1     -10.184  -9.659  15.895  0.00  0.00    +0.000 A 
ATOM     46  N   UNL     1      -9.938 -10.484  16.953  0.00  0.00    +0.000 NA
ATOM     47  H   UNL     1      -7.662 -12.506  15.444  0.00  0.00    +0.000 HD
ATOM     48  H   UNL     1      -8.178 -11.014  13.532  0.00  0.00    +0.000 HD
ATOM     49  H   UNL     1      -9.834  -9.197  13.811  0.00  0.00    +0.000 HD
BRANCH  41  50
ATOM     50  C   UNL     1      -8.772 -12.397  17.939  0.00  0.00    +0.000 C 
ATOM     51  H   UNL     1      -8.682 -13.443  17.631  0.00  0.00    +0.000 HD
ATOM     52  H   UNL     1      -9.586 -12.318  18.665  0.00  0.00    +0.000 HD
ATOM     53  H   UNL     1      -7.834 -12.107  18.424  0.00  0.00    +0.000 HD
ENDBRANCH  41  50
ENDBRANCH  39  45
ENDBRANCH   1  39
TORSDOF 5
ENDMDL
MODEL 2
REMARK VINA RESULT:    -9.418      0.086      1.485
REMARK INTER + INTRA:         -11.570
REMARK INTER:                 -11.861
REMARK INTRA:                   0.291
REMARK UNBOUND:                 0.051
REMARK  Name = 
REMARK  5 active torsions:
REMARK  status: ('A' for Active; 'I' for Inactive)
REMARK    1  A    between atoms: C_1  and  C_2
REMARK    2  A    between atoms: C_6  and  N_7
REMARK    3  A    between atoms: N_7  and  C_8
REMARK    4  A    between atoms: N_13  and  C_14
REMARK    5  A    between atoms: C_24  and  N_25
REMARK                            x       y       z     vdW  Elec       q    Type
REMARK                         _______ _______ _______ _____ _____    ______ ____
ROOT
ATOM      1  C   UNL     1     -10.791  -7.482  16.935  0.00  0.00    +0.000 A 
ATOM      2  N   UNL     1     -10.170  -7.792  18.075  0.00  0.00    +0.000 N 
ATOM      3  C   UNL     1      -9.796  -6.843  18.919  0.00  0.00    +0.000 A 
ATOM      4  N   UNL     1     -10.004  -5.536  18.705  0.00  0.00    +0.000 NA
ATOM      5  C   UNL     1     -10.673  -5.176  17.594  0.00  0.00    +0.000 A 
ATOM      6  N   UNL     1     -10.965  -3.826  17.344  0.00  0.00    +0.000 N 
ATOM      7  C   UNL     1     -11.156  -6.145  16.688  0.00  0.00    +0.000 A 
ATOM      8  H   UNL     1      -9.938  -8.780  18.220  0.00  0.00    +0.000 HD
ATOM      9  H   UNL     1      -9.270  -7.140  19.816  0.00  0.00    +0.000 HD
ATOM     10  H   UNL     1     -10.555  -3.542  16.454  0.00  0.00    +0.000 HD
ENDROOT
BRANCH   6  11
ATOM     11  C   UNL     1     -10.768  -2.814  18.408  0.00  0.00    +0.000 C 
ATOM     12  C   UNL     1     -11.784  -2.969  19.568  0.00  0.00    +0.000 C 
ATOM     13  C   UNL     1     -11.550  -1.881  20.634  0.00  0.00    +0.000 C 
ATOM     14  C   UNL     1     -10.147  -2.049  21.236  0.00  0.00    +0.000 C 
ATOM     15  C   UNL     1      -9.087  -1.947  20.127  0.00  0.00    +0.000 C 
ATOM     16  C   UNL     1      -9.176  -0.543  19.507  0.00  0.00    +0.000 C 
ATOM     17  C   UNL     1     -10.563  -0.330  18.895  0.00  0.00    +0.000 C 
ATOM     18  C   UNL     1     -11.656  -0.497  19.967  0.00  0.00    +0.000 C 
ATOM     19  C   UNL     1     -10.775  -1.383  17.806  0.00  0.00    +0.000 C 
ATOM     20  C   UNL     1      -9.358  -3.017  19.042  0.00  0.00    +0.000 C 
ATOM     21  H   UNL     1     -11.682  -3.963  20.028  0.00  0.00    +0.000 HD
ATOM     22  H   UNL     1     -12.819  -2.909  19.219  0.00  0.00    +0.000 HD
ATOM     23  H   UNL     1     -12.305  -1.968  21.425  0.00  0.00    +0.000 HD
ATOM     24  H   UNL     1     -10.067  -3.017  21.747  0.00  0.00    +0.000 HD
ATOM     25  H   UNL     1      -9.973  -1.275  21.995  0.00  0.00    +0.000 HD
ATOM     26  H   UNL     1      -8.089  -2.097  20.554  0.00  0.00    +0.000 HD
ATOM     27  H   UNL     1      -8.403  -0.422  18.738  0.00  0.00    +0.000 HD
ATOM     28  H   UNL     1      -8.987   0.221  20.270  0.00  0.00    +0.000 HD
ATOM     29  H   UNL     1     -10.628   0.670  18.453  0.00  0.00    +0.000 HD
ATOM     30  H   UNL     1     -12.648  -0.380  19.511  0.00  0.00    +0.000 HD
ATOM     31  H   UNL     1     -11.558   0.290  20.722  0.00  0.00    +0.000 HD
ATOM     32  H   UNL     1      -9.990  -1.301  17.041  0.00  0.00    +0.000 HD
ATOM     33  H   UNL     1     -11.709  -1.143  17.296  0.00  0.00    +0.000 HD
ATOM     34  H   UNL     1      -9.279  -4.019  19.488  0.00  0.00    +0.000 HD
ATOM     35  H   UNL     1      -8.582  -2.965  18.268  0.00  0.00    +0.000 HD
ENDBRANCH   6  11
BRANCH   7  36
ATOM     36  N   UNL     1     -11.781  -5.774  15.468  0.00  0.00    +0.000 N 
ATOM     37  H   UNL     1     -11.929  -6.609  14.889  0.00  0.00    +0.000 HD
ATOM     38  H   UNL     1     -11.250  -5.086  14.937  0.00  0.00    +0.000 HD
ENDBRANCH   7  36
BRANCH   1  39
ATOM     39  N   UNL     1     -11.073  -8.509  16.010  0.00  0.00    +0.000 N 
ATOM     40  H   UNL     1     -11.271  -8.077  15.107  0.00  0.00    +0.000 HD
BRANCH  39  45
ATOM     41  C   UNL     1      -9.068 -11.441  16.722  0.00  0.00    +0.000 A 
ATOM     42  C   UNL     1      -8.393 -11.649  15.525  0.00  0.00    +0.000 A 
ATOM     43  C   UNL     1      -8.666 -10.815  14.449  0.00  0.00    +0.000 A 
ATOM     44  C   UNL     1      -9.596  -9.793  14.594  0.00  0.00    +0.000 A 
ATOM     45  C   UNL     1     -10.198  -9.606  15.831  0.00  0.00    +0.000 A 
ATOM     46  N   UNL     1      -9.970 -10.433  16.892  0.00  0.00    +0.000 NA
ATOM     47  H   UNL     1      -7.664 -12.448  15.420  0.00  0.00    +0.000 HD
ATOM     48  H   UNL     1      -8.145 -10.951  13.504  0.00  0.00    +0.000 HD
ATOM     49  H   UNL     1      -9.808  -9.137  13.756  0.00  0.00    +0.000 HD
BRANCH  41  50
ATOM     50  C   UNL     1      -8.821 -12.348  17.894  0.00  0.00    +0.000 C 
ATOM     51  H   UNL     1      -9.215 -11.925  18.824  0.00  0.00    +0.000 HD
ATOM     52  H   UNL     1      -7.747 -12.515  18.016  0.00  0.00    +0.000 HD
ATOM     53  H   UNL     1      -9.314 -13.312  17.728  0.00  0.00    +0.000 HD
ENDBRANCH  41  50
ENDBRANCH  39  45
ENDBRANCH   1  39
TORSDOF 5
ENDMDL
MODEL 3
REMARK VINA RESULT:    -9.403      0.086      1.491
REMARK INTER + INTRA:         -11.551
REMARK INTER:                 -11.875
REMARK INTRA:                   0.324
REMARK UNBOUND:                 0.051
REMARK  Name = 
REMARK  5 active torsions:
REMARK  status: ('A' for Active; 'I' for Inactive)
REMARK    1  A    between atoms: C_1  and  C_2
REMARK    2  A    between atoms: C_6  and  N_7
REMARK    3  A    between atoms: N_7  and  C_8
REMARK    4  A    between atoms: N_13  and  C_14
REMARK    5  A    between atoms: C_24  and  N_25
REMARK                            x       y       z     vdW  Elec       q    Type
REMARK                         _______ _______ _______ _____ _____    ______ ____
ROOT
ATOM      1  C   UNL     1     -10.731  -7.473  16.963  0.00  0.00    +0.000 A 
ATOM      2  N   UNL     1     -10.054  -7.752  18.079  0.00  0.00    +0.000 N 
ATOM      3  C   UNL     1      -9.660  -6.782  18.889  0.00  0.00    +0.000 A 
ATOM      4  N   UNL     1      -9.902  -5.482  18.663  0.00  0.00    +0.000 NA
ATOM      5  C   UNL     1     -10.627  -5.154  17.577  0.00  0.00    +0.000 A 
ATOM      6  N   UNL     1     -10.954  -3.814  17.317  0.00  0.00    +0.000 N 
ATOM      7  C   UNL     1     -11.132  -6.147  16.710  0.00  0.00    +0.000 A 
ATOM      8  H   UNL     1      -9.798  -8.732  18.229  0.00  0.00    +0.000 HD
ATOM      9  H   UNL     1      -9.090  -7.053  19.767  0.00  0.00    +0.000 HD
ATOM     10  H   UNL     1     -10.590  -3.538  16.405  0.00  0.00    +0.000 HD
ENDROOT
BRANCH   6  11
ATOM     11  C   UNL     1     -10.729  -2.780  18.355  0.00  0.00    +0.000 C 
ATOM     12  C   UNL     1     -10.924  -1.342  17.810  0.00  0.00    +0.000 C 
ATOM     13  C   UNL     1     -10.657  -0.308  18.920  0.00  0.00    +0.000 C 
ATOM     14  C   UNL     1     -11.673  -0.503  20.055  0.00  0.00    +0.000 C 
ATOM     15  C   UNL     1     -11.562  -1.930  20.616  0.00  0.00    +0.000 C 
ATOM     16  C   UNL     1     -10.151  -2.105  21.203  0.00  0.00    +0.000 C 
ATOM     17  C   UNL     1      -9.102  -1.916  20.103  0.00  0.00    +0.000 C 
ATOM     18  C   UNL     1      -9.234  -0.519  19.468  0.00  0.00    +0.000 C 
ATOM     19  C   UNL     1      -9.341  -2.973  19.024  0.00  0.00    +0.000 C 
ATOM     20  C   UNL     1     -11.789  -2.959  19.484  0.00  0.00    +0.000 C 
ATOM     21  H   UNL     1     -11.949  -1.220  17.430  0.00  0.00    +0.000 HD
ATOM     22  H   UNL     1     -10.267  -1.131  16.961  0.00  0.00    +0.000 HD
ATOM     23  H   UNL     1     -10.748   0.706  18.512  0.00  0.00    +0.000 HD
ATOM     24  H   UNL     1     -12.691  -0.320  19.689  0.00  0.00    +0.000 HD
ATOM     25  H   UNL     1     -11.487   0.230  20.851  0.00  0.00    +0.000 HD
ATOM     26  H   UNL     1     -12.307  -2.076  21.406  0.00  0.00    +0.000 HD
ATOM     27  H   UNL     1     -10.051  -3.101  21.650  0.00  0.00    +0.000 HD
ATOM     28  H   UNL     1      -9.980  -1.378  22.005  0.00  0.00    +0.000 HD
ATOM     29  H   UNL     1      -8.096  -2.040  20.519  0.00  0.00    +0.000 HD
ATOM     30  H   UNL     1      -8.503  -0.407  18.656  0.00  0.00    +0.000 HD
ATOM     31  H   UNL     1      -9.001   0.250  20.213  0.00  0.00    +0.000 HD
ATOM     32  H   UNL     1      -9.278  -3.981  19.459  0.00  0.00    +0.000 HD
ATOM     33  H   UNL     1      -8.516  -2.908  18.313  0.00  0.00    +0.000 HD
ATOM     34  H   UNL     1     -12.804  -2.839  19.078  0.00  0.00    +0.000 HD
ATOM     35  H   UNL     1     -11.742  -3.977  19.892  0.00  0.00    +0.000 HD
ENDBRANCH   6  11
BRANCH   7  36
ATOM     36  N   UNL     1     -11.817  -5.809  15.513  0.00  0.00    +0.000 N 
ATOM     37  H   UNL     1     -12.553  -6.501  15.330  0.00  0.00    +0.000 HD
ATOM     38  H   UNL     1     -11.204  -5.747  14.702  0.00  0.00    +0.000 HD
ENDBRANCH   7  36
BRANCH   1  39
ATOM     39  N   UNL     1     -11.035  -8.520  16.069  0.00  0.00    +0.000 N 
ATOM     40  H   UNL     1     -11.246  -8.110  15.159  0.00  0.00    +0.000 HD
BRANCH  39  45
ATOM     41  C   UNL     1      -9.049 -11.456  16.818  0.00  0.00    +0.000 A 
ATOM     42  C   UNL     1      -8.384 -11.691  15.620  0.00  0.00    +0.000 A 
ATOM     43  C   UNL     1      -8.657 -10.873  14.532  0.00  0.00    +0.000 A 
ATOM     44  C   UNL     1      -9.578  -9.841  14.665  0.00  0.00    +0.000 A 
ATOM     45  C   UNL     1     -10.170  -9.628  15.903  0.00  0.00    +0.000 A 
ATOM     46  N   UNL     1      -9.942 -10.438  16.976  0.00  0.00    +0.000 NA
ATOM     47  H   UNL     1      -7.662 -12.496  15.524  0.00  0.00    +0.000 HD
ATOM     48  H   UNL     1      -8.144 -11.029  13.585  0.00  0.00    +0.000 HD
ATOM     49  H   UNL     1      -9.791  -9.198  13.817  0.00  0.00    +0.000 HD
BRANCH  41  50
ATOM     50  C   UNL     1      -8.801 -12.344  18.003  0.00  0.00    +0.000 C 
ATOM     51  H   UNL     1      -8.485 -13.347  17.700  0.00  0.00    +0.000 HD
ATOM     52  H   UNL     1      -9.715 -12.434  18.599  0.00  0.00    +0.000 HD
ATOM     53  H   UNL     1      -8.010 -11.917  18.629  0.00  0.00    +0.000 HD
ENDBRANCH  41  50
ENDBRANCH  39  45
ENDBRANCH   1  39
TORSDOF 5
ENDMDL
MODEL 4
REMARK VINA RESULT:    -9.249      2.939      3.932
REMARK INTER + INTRA:         -11.361
REMARK INTER:                 -11.677
REMARK INTRA:                   0.316
REMARK UNBOUND:                 0.051
REMARK  Name = 
REMARK  5 active torsions:
REMARK  status: ('A' for Active; 'I' for Inactive)
REMARK    1  A    between atoms: C_1  and  C_2
REMARK    2  A    between atoms: C_6  and  N_7
REMARK    3  A    between atoms: N_7  and  C_8
REMARK    4  A    between atoms: N_13  and  C_14
REMARK    5  A    between atoms: C_24  and  N_25
REMARK                            x       y       z     vdW  Elec       q    Type
REMARK                         _______ _______ _______ _____ _____    ______ ____
ROOT
ATOM      1  C   UNL     1      -9.436  -8.247  17.546  0.00  0.00    +0.000 A 
ATOM      2  N   UNL     1      -8.242  -7.653  17.585  0.00  0.00    +0.000 N 
ATOM      3  C   UNL     1      -8.019  -6.541  16.902  0.00  0.00    +0.000 A 
ATOM      4  N   UNL     1      -8.946  -5.939  16.141  0.00  0.00    +0.000 NA
ATOM      5  C   UNL     1     -10.182  -6.472  16.112  0.00  0.00    +0.000 A 
ATOM      6  N   UNL     1     -11.204  -5.857  15.373  0.00  0.00    +0.000 N 
ATOM      7  C   UNL     1     -10.500  -7.619  16.870  0.00  0.00    +0.000 A 
ATOM      8  H   UNL     1      -7.502  -8.138  18.102  0.00  0.00    +0.000 HD
ATOM      9  H   UNL     1      -7.028  -6.111  16.941  0.00  0.00    +0.000 HD
ATOM     10  H   UNL     1     -11.569  -6.507  14.676  0.00  0.00    +0.000 HD
ENDROOT
BRANCH   6  11
ATOM     11  C   UNL     1     -11.010  -4.492  14.829  0.00  0.00    +0.000 C 
ATOM     12  C   UNL     1      -9.658  -4.335  14.089  0.00  0.00    +0.000 C 
ATOM     13  C   UNL     1      -9.498  -2.896  13.565  0.00  0.00    +0.000 C 
ATOM     14  C   UNL     1     -10.607  -2.598  12.545  0.00  0.00    +0.000 C 
ATOM     15  C   UNL     1     -11.984  -2.775  13.206  0.00  0.00    +0.000 C 
ATOM     16  C   UNL     1     -12.101  -1.757  14.351  0.00  0.00    +0.000 C 
ATOM     17  C   UNL     1     -11.009  -2.016  15.393  0.00  0.00    +0.000 C 
ATOM     18  C   UNL     1      -9.614  -1.916  14.747  0.00  0.00    +0.000 C 
ATOM     19  C   UNL     1     -11.198  -3.429  15.946  0.00  0.00    +0.000 C 
ATOM     20  C   UNL     1     -12.116  -4.211  13.766  0.00  0.00    +0.000 C 
ATOM     21  H   UNL     1      -9.605  -5.043  13.249  0.00  0.00    +0.000 HD
ATOM     22  H   UNL     1      -8.807  -4.576  14.734  0.00  0.00    +0.000 HD
ATOM     23  H   UNL     1      -8.516  -2.782  13.087  0.00  0.00    +0.000 HD
ATOM     24  H   UNL     1     -10.515  -3.264  11.679  0.00  0.00    +0.000 HD
ATOM     25  H   UNL     1     -10.500  -1.571  12.169  0.00  0.00    +0.000 HD
ATOM     26  H   UNL     1     -12.774  -2.591  12.470  0.00  0.00    +0.000 HD
ATOM     27  H   UNL     1     -13.091  -1.828  14.819  0.00  0.00    +0.000 HD
ATOM     28  H   UNL     1     -12.006  -0.736  13.963  0.00  0.00    +0.000 HD
ATOM     29  H   UNL     1     -11.091  -1.291  16.210  0.00  0.00    +0.000 HD
ATOM     30  H   UNL     1      -8.840  -2.141  15.493  0.00  0.00    +0.000 HD
ATOM     31  H   UNL     1      -9.437  -0.892  14.403  0.00  0.00    +0.000 HD
ATOM     32  H   UNL     1     -12.198  -3.533  16.390  0.00  0.00    +0.000 HD
ATOM     33  H   UNL     1     -10.495  -3.555  16.772  0.00  0.00    +0.000 HD
ATOM     34  H   UNL     1     -12.046  -4.934  12.942  0.00  0.00    +0.000 HD
ATOM     35  H   UNL     1     -13.112  -4.347  14.208  0.00  0.00    +0.000 HD
ENDBRANCH   6  11
BRANCH   7  36
ATOM     36  N   UNL     1     -11.772  -8.243  16.775  0.00  0.00    +0.000 N 
ATOM     37  H   UNL     1     -12.406  -7.842  17.477  0.00  0.00    +0.000 HD
ATOM     38  H   UNL     1     -11.735  -9.253  16.893  0.00  0.00    +0.000 HD
ENDBRANCH   7  36
BRANCH   1  39
ATOM     39  N   UNL     1      -9.603  -9.489  18.195  0.00  0.00    +0.000 N 
ATOM     40  H   UNL     1     -10.569  -9.552  18.516  0.00  0.00    +0.000 HD
BRANCH  39  45
ATOM     41  C   UNL     1      -8.621 -12.948  17.756  0.00  0.00    +0.000 A 
ATOM     42  C   UNL     1      -8.361 -13.022  16.392  0.00  0.00    +0.000 A 
ATOM     43  C   UNL     1      -8.574 -11.897  15.608  0.00  0.00    +0.000 A 
ATOM     44  C   UNL     1      -9.035 -10.727  16.200  0.00  0.00    +0.000 A 
ATOM     45  C   UNL     1      -9.226 -10.704  17.575  0.00  0.00    +0.000 A 
ATOM     46  N   UNL     1      -9.055 -11.806  18.361  0.00  0.00    +0.000 NA
ATOM     47  H   UNL     1      -7.996 -13.939  15.937  0.00  0.00    +0.000 HD
ATOM     48  H   UNL     1      -8.370 -11.926  14.540  0.00  0.00    +0.000 HD
ATOM     49  H   UNL     1      -9.199  -9.845  15.590  0.00  0.00    +0.000 HD
BRANCH  41  50
ATOM     50  C   UNL     1      -8.433 -14.158  18.626  0.00  0.00    +0.000 C 
ATOM     51  H   UNL     1      -9.211 -14.232  19.392  0.00  0.00    +0.000 HD
ATOM     52  H   UNL     1      -7.460 -14.110  19.125  0.00  0.00    +0.000 HD
ATOM     53  H   UNL     1      -8.475 -15.065  18.015  0.00  0.00    +0.000 HD
ENDBRANCH  41  50
ENDBRANCH  39  45
ENDBRANCH   1  39
TORSDOF 5
ENDMDL
MODEL 5
REMARK VINA RESULT:    -9.195      1.292      2.384
REMARK INTER + INTRA:         -11.294
REMARK INTER:                 -11.406
REMARK INTRA:                   0.111
REMARK UNBOUND:                 0.051
REMARK  Name = 
REMARK  5 active torsions:
REMARK  status: ('A' for Active; 'I' for Inactive)
REMARK    1  A    between atoms: C_1  and  C_2
REMARK    2  A    between atoms: C_6  and  N_7
REMARK    3  A    between atoms: N_7  and  C_8
REMARK    4  A    between atoms: N_13  and  C_14
REMARK    5  A    between atoms: C_24  and  N_25
REMARK                            x       y       z     vdW  Elec       q    Type
REMARK                         _______ _______ _______ _____ _____    ______ ____
ROOT
ATOM      1  C   UNL     1     -10.402  -7.885  16.135  0.00  0.00    +0.000 A 
ATOM      2  N   UNL     1      -9.463  -7.288  15.398  0.00  0.00    +0.000 N 
ATOM      3  C   UNL     1      -9.228  -5.991  15.525  0.00  0.00    +0.000 A 
ATOM      4  N   UNL     1      -9.892  -5.197  16.378  0.00  0.00    +0.000 NA
ATOM      5  C   UNL     1     -10.812  -5.763  17.181  0.00  0.00    +0.000 A 
ATOM      6  N   UNL     1     -11.502  -4.990  18.128  0.00  0.00    +0.000 N 
ATOM      7  C   UNL     1     -11.063  -7.151  17.140  0.00  0.00    +0.000 A 
ATOM      8  H   UNL     1      -8.997  -7.865  14.690  0.00  0.00    +0.000 HD
ATOM      9  H   UNL     1      -8.478  -5.547  14.887  0.00  0.00    +0.000 HD
ATOM     10  H   UNL     1     -12.506  -5.044  17.956  0.00  0.00    +0.000 HD
ENDROOT
BRANCH   6  11
ATOM     11  C   UNL     1     -11.052  -3.610  18.432  0.00  0.00    +0.000 C 
ATOM     12  C   UNL     1     -11.290  -2.636  17.250  0.00  0.00    +0.000 C 
ATOM     13  C   UNL     1     -10.785  -1.226  17.609  0.00  0.00    +0.000 C 
ATOM     14  C   UNL     1     -11.583  -0.687  18.806  0.00  0.00    +0.000 C 
ATOM     15  C   UNL     1     -11.424  -1.634  20.008  0.00  0.00    +0.000 C 
ATOM     16  C   UNL     1      -9.937  -1.665  20.399  0.00  0.00    +0.000 C 
ATOM     17  C   UNL     1      -9.101  -2.194  19.230  0.00  0.00    +0.000 C 
ATOM     18  C   UNL     1      -9.294  -1.308  17.985  0.00  0.00    +0.000 C 
ATOM     19  C   UNL     1      -9.573  -3.612  18.905  0.00  0.00    +0.000 C 
ATOM     20  C   UNL     1     -11.893  -3.056  19.621  0.00  0.00    +0.000 C 
ATOM     21  H   UNL     1     -12.362  -2.594  17.007  0.00  0.00    +0.000 HD
ATOM     22  H   UNL     1     -10.791  -2.971  16.335  0.00  0.00    +0.000 HD
ATOM     23  H   UNL     1     -10.912  -0.557  16.749  0.00  0.00    +0.000 HD
ATOM     24  H   UNL     1     -12.643  -0.588  18.542  0.00  0.00    +0.000 HD
ATOM     25  H   UNL     1     -11.226   0.318  19.069  0.00  0.00    +0.000 HD
ATOM     26  H   UNL     1     -12.017  -1.263  20.851  0.00  0.00    +0.000 HD
ATOM     27  H   UNL     1      -9.794  -2.300  21.281  0.00  0.00    +0.000 HD
ATOM     28  H   UNL     1      -9.595  -0.659  20.672  0.00  0.00    +0.000 HD
ATOM     29  H   UNL     1      -8.042  -2.217  19.507  0.00  0.00    +0.000 HD
ATOM     30  H   UNL     1      -8.721  -1.718  17.143  0.00  0.00    +0.000 HD
ATOM     31  H   UNL     1      -8.901  -0.305  18.180  0.00  0.00    +0.000 HD
ATOM     32  H   UNL     1      -9.469  -4.259  19.789  0.00  0.00    +0.000 HD
ATOM     33  H   UNL     1      -8.890  -4.022  18.159  0.00  0.00    +0.000 HD
ATOM     34  H   UNL     1     -12.960  -3.030  19.356  0.00  0.00    +0.000 HD
ATOM     35  H   UNL     1     -11.811  -3.723  20.489  0.00  0.00    +0.000 HD
ENDBRANCH   6  11
BRANCH   7  36
ATOM     36  N   UNL     1     -12.095  -7.743  17.915  0.00  0.00    +0.000 N 
ATOM     37  H   UNL     1     -11.859  -8.723  18.113  0.00  0.00    +0.000 HD
ATOM     38  H   UNL     1     -13.008  -7.701  17.467  0.00  0.00    +0.000 HD
ENDBRANCH   7  36
BRANCH   1  39
ATOM     39  N   UNL     1     -10.701  -9.242  15.893  0.00  0.00    +0.000 N 
ATOM     40  H   UNL     1     -10.877  -9.355  14.895  0.00  0.00    +0.000 HD
BRANCH  39  45
ATOM     41  C   UNL     1      -8.787 -12.317  15.966  0.00  0.00    +0.000 A 
ATOM     42  C   UNL     1      -8.327 -12.361  17.277  0.00  0.00    +0.000 A 
ATOM     43  C   UNL     1      -8.628 -11.305  18.128  0.00  0.00    +0.000 A 
ATOM     44  C   UNL     1      -9.382 -10.238  17.654  0.00  0.00    +0.000 A 
ATOM     45  C   UNL     1      -9.854 -10.279  16.349  0.00  0.00    +0.000 A 
ATOM     46  N   UNL     1      -9.544 -11.289  15.486  0.00  0.00    +0.000 NA
ATOM     47  H   UNL     1      -7.742 -13.200  17.641  0.00  0.00    +0.000 HD
ATOM     48  H   UNL     1      -8.287 -11.320  19.161  0.00  0.00    +0.000 HD
ATOM     49  H   UNL     1      -9.621  -9.414  18.318  0.00  0.00    +0.000 HD
BRANCH  41  50
ATOM     50  C   UNL     1      -8.450 -13.426  15.012  0.00  0.00    +0.000 C 
ATOM     51  H   UNL     1      -8.901 -14.376  15.318  0.00  0.00    +0.000 HD
ATOM     52  H   UNL     1      -7.365 -13.558  14.961  0.00  0.00    +0.000 HD
ATOM     53  H   UNL     1      -8.826 -13.183  14.012  0.00  0.00    +0.000 HD
ENDBRANCH  41  50
ENDBRANCH  39  45
ENDBRANCH   1  39
TORSDOF 5
ENDMDL
MODEL 6
REMARK VINA RESULT:    -9.101      2.273      3.523
REMARK INTER + INTRA:         -11.179
REMARK INTER:                 -11.124
REMARK INTRA:                  -0.055
REMARK UNBOUND:                 0.051
REMARK  Name = 
REMARK  5 active torsions:
REMARK  status: ('A' for Active; 'I' for Inactive)
REMARK    1  A    between atoms: C_1  and  C_2
REMARK    2  A    between atoms: C_6  and  N_7
REMARK    3  A    between atoms: N_7  and  C_8
REMARK    4  A    between atoms: N_13  and  C_14
REMARK    5  A    between atoms: C_24  and  N_25
REMARK                            x       y       z     vdW  Elec       q    Type
REMARK                         _______ _______ _______ _____ _____    ______ ____
ROOT
ATOM      1  C   UNL     1      -9.350  -7.853  17.905  0.00  0.00    +0.000 A 
ATOM      2  N   UNL     1      -8.414  -7.653  16.974  0.00  0.00    +0.000 N 
ATOM      3  C   UNL     1      -8.489  -6.617  16.154  0.00  0.00    +0.000 A 
ATOM      4  N   UNL     1      -9.478  -5.712  16.190  0.00  0.00    +0.000 NA
ATOM      5  C   UNL     1     -10.418  -5.841  17.145  0.00  0.00    +0.000 A 
ATOM      6  N   UNL     1     -11.449  -4.896  17.262  0.00  0.00    +0.000 N 
ATOM      7  C   UNL     1     -10.358  -6.888  18.091  0.00  0.00    +0.000 A 
ATOM      8  H   UNL     1      -7.691  -8.374  16.886  0.00  0.00    +0.000 HD
ATOM      9  H   UNL     1      -7.723  -6.511  15.398  0.00  0.00    +0.000 HD
ATOM     10  H   UNL     1     -12.354  -5.356  17.164  0.00  0.00    +0.000 HD
ENDROOT
BRANCH   6  11
ATOM     11  C   UNL     1     -11.376  -3.620  16.511  0.00  0.00    +0.000 C 
ATOM     12  C   UNL     1     -11.394  -3.834  14.977  0.00  0.00    +0.000 C 
ATOM     13  C   UNL     1     -11.294  -2.482  14.246  0.00  0.00    +0.000 C 
ATOM     14  C   UNL     1     -12.516  -1.620  14.597  0.00  0.00    +0.000 C 
ATOM     15  C   UNL     1     -12.583  -1.402  16.118  0.00  0.00    +0.000 C 
ATOM     16  C   UNL     1     -11.320  -0.638  16.548  0.00  0.00    +0.000 C 
ATOM     17  C   UNL     1     -10.073  -1.461  16.213  0.00  0.00    +0.000 C 
ATOM     18  C   UNL     1     -10.013  -1.759  14.703  0.00  0.00    +0.000 C 
ATOM     19  C   UNL     1     -10.152  -2.785  16.975  0.00  0.00    +0.000 C 
ATOM     20  C   UNL     1     -12.639  -2.769  16.841  0.00  0.00    +0.000 C 
ATOM     21  H   UNL     1     -12.321  -4.346  14.679  0.00  0.00    +0.000 HD
ATOM     22  H   UNL     1     -10.577  -4.481  14.642  0.00  0.00    +0.000 HD
ATOM     23  H   UNL     1     -11.257  -2.647  13.162  0.00  0.00    +0.000 HD
ATOM     24  H   UNL     1     -13.435  -2.104  14.245  0.00  0.00    +0.000 HD
ATOM     25  H   UNL     1     -12.450  -0.653  14.081  0.00  0.00    +0.000 HD
ATOM     26  H   UNL     1     -13.471  -0.812  16.369  0.00  0.00    +0.000 HD
ATOM     27  H   UNL     1     -11.355  -0.429  17.624  0.00  0.00    +0.000 HD
ATOM     28  H   UNL     1     -11.270   0.331  16.037  0.00  0.00    +0.000 HD
ATOM     29  H   UNL     1      -9.172  -0.918  16.518  0.00  0.00    +0.000 HD
ATOM     30  H   UNL     1      -9.136  -2.382  14.480  0.00  0.00    +0.000 HD
ATOM     31  H   UNL     1      -9.891  -0.825  14.146  0.00  0.00    +0.000 HD
ATOM     32  H   UNL     1     -10.222  -2.597  18.057  0.00  0.00    +0.000 HD
ATOM     33  H   UNL     1      -9.204  -3.305  16.828  0.00  0.00    +0.000 HD
ATOM     34  H   UNL     1     -13.551  -3.305  16.542  0.00  0.00    +0.000 HD
ATOM     35  H   UNL     1     -12.720  -2.612  17.925  0.00  0.00    +0.000 HD
ENDBRANCH   6  11
BRANCH   7  36
ATOM     36  N   UNL     1     -11.392  -7.088  19.043  0.00  0.00    +0.000 N 
ATOM     37  H   UNL     1     -11.367  -8.058  19.380  0.00  0.00    +0.000 HD
ATOM     38  H   UNL     1     -12.320  -6.882  18.678  0.00  0.00    +0.000 HD
ENDBRANCH   7  36
BRANCH   1  39
ATOM     39  N   UNL     1      -9.298  -9.027  18.685  0.00  0.00    +0.000 N 
ATOM     40  H   UNL     1     -10.180  -9.112  19.190  0.00  0.00    +0.000 HD
BRANCH  39  45
ATOM     41  C   UNL     1      -8.811 -11.672  16.258  0.00  0.00    +0.000 A 
ATOM     42  C   UNL     1      -8.403 -12.741  17.047  0.00  0.00    +0.000 A 
ATOM     43  C   UNL     1      -8.240 -12.542  18.412  0.00  0.00    +0.000 A 
ATOM     44  C   UNL     1      -8.493 -11.289  18.955  0.00  0.00    +0.000 A 
ATOM     45  C   UNL     1      -8.948 -10.276  18.121  0.00  0.00    +0.000 A 
ATOM     46  N   UNL     1      -9.083 -10.440  16.773  0.00  0.00    +0.000 NA
ATOM     47  H   UNL     1      -8.212 -13.720  16.616  0.00  0.00    +0.000 HD
ATOM     48  H   UNL     1      -7.931 -13.365  19.052  0.00  0.00    +0.000 HD
ATOM     49  H   UNL     1      -8.370 -11.131  20.022  0.00  0.00    +0.000 HD
BRANCH  41  50
ATOM     50  C   UNL     1      -8.964 -11.846  14.774  0.00  0.00    +0.000 C 
ATOM     51  H   UNL     1      -8.066 -11.530  14.234  0.00  0.00    +0.000 HD
ATOM     52  H   UNL     1      -9.811 -11.253  14.414  0.00  0.00    +0.000 HD
ATOM     53  H   UNL     1      -9.144 -12.901  14.540  0.00  0.00    +0.000 HD
ENDBRANCH  41  50
ENDBRANCH  39  45
ENDBRANCH   1  39
TORSDOF 5
ENDMDL
MODEL 7
REMARK VINA RESULT:    -9.035      1.301      2.329
REMARK INTER + INTRA:         -11.096
REMARK INTER:                 -11.372
REMARK INTRA:                   0.275
REMARK UNBOUND:                 0.051
REMARK  Name = 
REMARK  5 active torsions:
REMARK  status: ('A' for Active; 'I' for Inactive)
REMARK    1  A    between atoms: C_1  and  C_2
REMARK    2  A    between atoms: C_6  and  N_7
REMARK    3  A    between atoms: N_7  and  C_8
REMARK    4  A    between atoms: N_13  and  C_14
REMARK    5  A    between atoms: C_24  and  N_25
REMARK                            x       y       z     vdW  Elec       q    Type
REMARK                         _______ _______ _______ _____ _____    ______ ____
ROOT
ATOM      1  C   UNL     1      -9.873  -6.923  15.901  0.00  0.00    +0.000 A 
ATOM      2  N   UNL     1     -11.172  -6.653  15.755  0.00  0.00    +0.000 N 
ATOM      3  C   UNL     1     -11.745  -5.693  16.465  0.00  0.00    +0.000 A 
ATOM      4  N   UNL     1     -11.089  -4.938  17.358  0.00  0.00    +0.000 NA
ATOM      5  C   UNL     1      -9.766  -5.137  17.503  0.00  0.00    +0.000 A 
ATOM      6  N   UNL     1      -9.018  -4.343  18.386  0.00  0.00    +0.000 N 
ATOM      7  C   UNL     1      -9.084  -6.101  16.729  0.00  0.00    +0.000 A 
ATOM      8  H   UNL     1     -11.703  -7.268  15.131  0.00  0.00    +0.000 HD
ATOM      9  H   UNL     1     -12.805  -5.529  16.333  0.00  0.00    +0.000 HD
ATOM     10  H   UNL     1      -8.566  -4.932  19.086  0.00  0.00    +0.000 HD
ENDROOT
BRANCH   6  11
ATOM     11  C   UNL     1      -9.617  -3.121  18.974  0.00  0.00    +0.000 C 
ATOM     12  C   UNL     1     -11.077  -3.343  19.442  0.00  0.00    +0.000 C 
ATOM     13  C   UNL     1     -11.657  -2.039  20.023  0.00  0.00    +0.000 C 
ATOM     14  C   UNL     1     -10.845  -1.625  21.259  0.00  0.00    +0.000 C 
ATOM     15  C   UNL     1      -9.370  -1.428  20.872  0.00  0.00    +0.000 C 
ATOM     16  C   UNL     1      -9.293  -0.286  19.845  0.00  0.00    +0.000 C 
ATOM     17  C   UNL     1     -10.094  -0.656  18.593  0.00  0.00    +0.000 C 
ATOM     18  C   UNL     1     -11.564  -0.932  18.957  0.00  0.00    +0.000 C 
ATOM     19  C   UNL     1      -9.487  -1.925  17.992  0.00  0.00    +0.000 C 
ATOM     20  C   UNL     1      -8.812  -2.730  20.251  0.00  0.00    +0.000 C 
ATOM     21  H   UNL     1     -11.112  -4.134  20.205  0.00  0.00    +0.000 HD
ATOM     22  H   UNL     1     -11.722  -3.687  18.628  0.00  0.00    +0.000 HD
ATOM     23  H   UNL     1     -12.706  -2.193  20.304  0.00  0.00    +0.000 HD
ATOM     24  H   UNL     1     -10.931  -2.388  22.042  0.00  0.00    +0.000 HD
ATOM     25  H   UNL     1     -11.252  -0.694  21.677  0.00  0.00    +0.000 HD
ATOM     26  H   UNL     1      -8.787  -1.161  21.760  0.00  0.00    +0.000 HD
ATOM     27  H   UNL     1      -8.247  -0.091  19.578  0.00  0.00    +0.000 HD
ATOM     28  H   UNL     1      -9.689   0.640  20.277  0.00  0.00    +0.000 HD
ATOM     29  H   UNL     1     -10.040   0.156  17.860  0.00  0.00    +0.000 HD
ATOM     30  H   UNL     1     -12.121  -1.233  18.059  0.00  0.00    +0.000 HD
ATOM     31  H   UNL     1     -12.032  -0.014  19.329  0.00  0.00    +0.000 HD
ATOM     32  H   UNL     1      -8.428  -1.761  17.748  0.00  0.00    +0.000 HD
ATOM     33  H   UNL     1      -9.985  -2.106  17.038  0.00  0.00    +0.000 HD
ATOM     34  H   UNL     1      -8.856  -3.539  20.994  0.00  0.00    +0.000 HD
ATOM     35  H   UNL     1      -7.750  -2.599  20.006  0.00  0.00    +0.000 HD
ENDBRANCH   6  11
BRANCH   7  36
ATOM     36  N   UNL     1      -7.708  -6.384  16.938  0.00  0.00    +0.000 N 
ATOM     37  H   UNL     1      -7.320  -5.723  17.622  0.00  0.00    +0.000 HD
ATOM     38  H   UNL     1      -7.155  -6.347  16.084  0.00  0.00    +0.000 HD
ENDBRANCH   7  36
BRANCH   1  39
ATOM     39  N   UNL     1      -9.323  -8.025  15.213  0.00  0.00    +0.000 N 
ATOM     40  H   UNL     1      -8.421  -7.741  14.829  0.00  0.00    +0.000 HD
BRANCH  39  45
ATOM     41  C   UNL     1      -8.761 -10.578  17.721  0.00  0.00    +0.000 A 
ATOM     42  C   UNL     1      -8.831 -11.754  16.982  0.00  0.00    +0.000 A 
ATOM     43  C   UNL     1      -9.126 -11.677  15.628  0.00  0.00    +0.000 A 
ATOM     44  C   UNL     1      -9.338 -10.435  15.043  0.00  0.00    +0.000 A 
ATOM     45  C   UNL     1      -9.202  -9.295  15.825  0.00  0.00    +0.000 A 
ATOM     46  N   UNL     1      -8.946  -9.348  17.164  0.00  0.00    +0.000 NA
ATOM     47  H   UNL     1      -8.660 -12.722  17.446  0.00  0.00    +0.000 HD
ATOM     48  H   UNL     1      -9.178 -12.582  15.026  0.00  0.00    +0.000 HD
ATOM     49  H   UNL     1      -9.565 -10.371  13.984  0.00  0.00    +0.000 HD
BRANCH  41  50
ATOM     50  C   UNL     1      -8.477 -10.630  19.195  0.00  0.00    +0.000 C 
ATOM     51  H   UNL     1      -8.446  -9.629  19.637  0.00  0.00    +0.000 HD
ATOM     52  H   UNL     1      -7.513 -11.117  19.372  0.00  0.00    +0.000 HD
ATOM     53  H   UNL     1      -9.262 -11.199  19.705  0.00  0.00    +0.000 HD
ENDBRANCH  41  50
ENDBRANCH  39  45
ENDBRANCH   1  39
TORSDOF 5
ENDMDL
MODEL 8
REMARK VINA RESULT:    -8.849      2.162      3.228
REMARK INTER + INTRA:         -10.867
REMARK INTER:                 -11.112
REMARK INTRA:                   0.245
REMARK UNBOUND:                 0.051
REMARK  Name = 
REMARK  5 active torsions:
REMARK  status: ('A' for Active; 'I' for Inactive)
REMARK    1  A    between atoms: C_1  and  C_2
REMARK    2  A    between atoms: C_6  and  N_7
REMARK    3  A    between atoms: N_7  and  C_8
REMARK    4  A    between atoms: N_13  and  C_14
REMARK    5  A    between atoms: C_24  and  N_25
REMARK                            x       y       z     vdW  Elec       q    Type
REMARK                         _______ _______ _______ _____ _____    ______ ____
ROOT
ATOM      1  C   UNL     1      -8.872  -5.856  17.979  0.00  0.00    +0.000 A 
ATOM      2  N   UNL     1      -7.617  -5.984  18.414  0.00  0.00    +0.000 N 
ATOM      3  C   UNL     1      -7.150  -5.195  19.369  0.00  0.00    +0.000 A 
ATOM      4  N   UNL     1      -7.876  -4.235  19.959  0.00  0.00    +0.000 NA
ATOM      5  C   UNL     1      -9.164  -4.101  19.592  0.00  0.00    +0.000 A 
ATOM      6  N   UNL     1      -9.986  -3.147  20.211  0.00  0.00    +0.000 N 
ATOM      7  C   UNL     1      -9.740  -4.955  18.626  0.00  0.00    +0.000 A 
ATOM      8  H   UNL     1      -7.026  -6.664  17.924  0.00  0.00    +0.000 HD
ATOM      9  H   UNL     1      -6.118  -5.317  19.669  0.00  0.00    +0.000 HD
ATOM     10  H   UNL     1     -10.354  -2.500  19.513  0.00  0.00    +0.000 HD
ENDROOT
BRANCH   6  11
ATOM     11  C   UNL     1      -9.527  -2.456  21.439  0.00  0.00    +0.000 C 
ATOM     12  C   UNL     1      -8.920  -1.061  21.142  0.00  0.00    +0.000 C 
ATOM     13  C   UNL     1      -8.440  -0.397  22.446  0.00  0.00    +0.000 C 
ATOM     14  C   UNL     1      -9.639  -0.178  23.380  0.00  0.00    +0.000 C 
ATOM     15  C   UNL     1     -10.317  -1.525  23.684  0.00  0.00    +0.000 C 
ATOM     16  C   UNL     1      -9.301  -2.418  24.413  0.00  0.00    +0.000 C 
ATOM     17  C   UNL     1      -8.082  -2.661  23.517  0.00  0.00    +0.000 C 
ATOM     18  C   UNL     1      -7.421  -1.324  23.134  0.00  0.00    +0.000 C 
ATOM     19  C   UNL     1      -8.555  -3.362  22.243  0.00  0.00    +0.000 C 
ATOM     20  C   UNL     1     -10.756  -2.201  22.364  0.00  0.00    +0.000 C 
ATOM     21  H   UNL     1      -9.670  -0.420  20.656  0.00  0.00    +0.000 HD
ATOM     22  H   UNL     1      -8.081  -1.118  20.441  0.00  0.00    +0.000 HD
ATOM     23  H   UNL     1      -7.967   0.567  22.220  0.00  0.00    +0.000 HD
ATOM     24  H   UNL     1     -10.358   0.510  22.919  0.00  0.00    +0.000 HD
ATOM     25  H   UNL     1      -9.304   0.293  24.313  0.00  0.00    +0.000 HD
ATOM     26  H   UNL     1     -11.189  -1.363  24.326  0.00  0.00    +0.000 HD
ATOM     27  H   UNL     1      -9.766  -3.374  24.682  0.00  0.00    +0.000 HD
ATOM     28  H   UNL     1      -8.982  -1.945  25.349  0.00  0.00    +0.000 HD
ATOM     29  H   UNL     1      -7.357  -3.298  24.036  0.00  0.00    +0.000 HD
ATOM     30  H   UNL     1      -6.572  -1.507  22.461  0.00  0.00    +0.000 HD
ATOM     31  H   UNL     1      -7.018  -0.840  24.029  0.00  0.00    +0.000 HD
ATOM     32  H   UNL     1      -9.055  -4.309  22.493  0.00  0.00    +0.000 HD
ATOM     33  H   UNL     1      -7.667  -3.640  21.673  0.00  0.00    +0.000 HD
ATOM     34  H   UNL     1     -11.493  -1.565  21.853  0.00  0.00    +0.000 HD
ATOM     35  H   UNL     1     -11.269  -3.146  22.583  0.00  0.00    +0.000 HD
ENDBRANCH   6  11
BRANCH   7  36
ATOM     36  N   UNL     1     -11.069  -4.764  18.164  0.00  0.00    +0.000 N 
ATOM     37  H   UNL     1     -11.534  -5.674  18.066  0.00  0.00    +0.000 HD
ATOM     38  H   UNL     1     -11.118  -4.265  17.278  0.00  0.00    +0.000 HD
ENDBRANCH   7  36
BRANCH   1  39
ATOM     39  N   UNL     1      -9.299  -6.637  16.885  0.00  0.00    +0.000 N 
ATOM     40  H   UNL     1      -8.748  -6.370  16.069  0.00  0.00    +0.000 HD
BRANCH  39  45
ATOM     41  C   UNL     1      -8.874 -10.025  18.095  0.00  0.00    +0.000 A 
ATOM     42  C   UNL     1      -9.402 -10.789  17.061  0.00  0.00    +0.000 A 
ATOM     43  C   UNL     1      -9.958 -10.140  15.966  0.00  0.00    +0.000 A 
ATOM     44  C   UNL     1      -9.967  -8.752  15.926  0.00  0.00    +0.000 A 
ATOM     45  C   UNL     1      -9.377  -8.047  16.967  0.00  0.00    +0.000 A 
ATOM     46  N   UNL     1      -8.855  -8.662  18.068  0.00  0.00    +0.000 NA
ATOM     47  H   UNL     1      -9.387 -11.875  17.097  0.00  0.00    +0.000 HD
ATOM     48  H   UNL     1     -10.370 -10.715  15.140  0.00  0.00    +0.000 HD
ATOM     49  H   UNL     1     -10.398  -8.242  15.070  0.00  0.00    +0.000 HD
BRANCH  41  50
ATOM     50  C   UNL     1      -8.296 -10.696  19.308  0.00  0.00    +0.000 C 
ATOM     51  H   UNL     1      -7.301 -10.311  19.550  0.00  0.00    +0.000 HD
ATOM     52  H   UNL     1      -8.218 -11.774  19.137  0.00  0.00    +0.000 HD
ATOM     53  H   UNL     1      -8.945 -10.521  20.174  0.00  0.00    +0.000 HD
ENDBRANCH  41  50
ENDBRANCH  39  45
ENDBRANCH   1  39
TORSDOF 5
ENDMDL
MODEL 9
REMARK VINA RESULT:    -8.817      3.239      4.512
REMARK INTER + INTRA:         -10.828
REMARK INTER:                 -11.156
REMARK INTRA:                   0.328
REMARK UNBOUND:                 0.051
REMARK  Name = 
REMARK  5 active torsions:
REMARK  status: ('A' for Active; 'I' for Inactive)
REMARK    1  A    between atoms: C_1  and  C_2
REMARK    2  A    between atoms: C_6  and  N_7
REMARK    3  A    between atoms: N_7  and  C_8
REMARK    4  A    between atoms: N_13  and  C_14
REMARK    5  A    between atoms: C_24  and  N_25
REMARK                            x       y       z     vdW  Elec       q    Type
REMARK                         _______ _______ _______ _____ _____    ______ ____
ROOT
ATOM      1  C   UNL     1     -10.151  -7.263  17.143  0.00  0.00    +0.000 A 
ATOM      2  N   UNL     1     -11.464  -7.052  17.250  0.00  0.00    +0.000 N 
ATOM      3  C   UNL     1     -12.029  -6.005  16.668  0.00  0.00    +0.000 A 
ATOM      4  N   UNL     1     -11.350  -5.101  15.947  0.00  0.00    +0.000 NA
ATOM      5  C   UNL     1     -10.031  -5.299  15.766  0.00  0.00    +0.000 A 
ATOM      6  N   UNL     1      -9.279  -4.413  14.979  0.00  0.00    +0.000 N 
ATOM      7  C   UNL     1      -9.382  -6.430  16.306  0.00  0.00    +0.000 A 
ATOM      8  H   UNL     1     -11.986  -7.692  17.857  0.00  0.00    +0.000 HD
ATOM      9  H   UNL     1     -13.092  -5.860  16.805  0.00  0.00    +0.000 HD
ATOM     10  H   UNL     1      -8.524  -4.010  15.534  0.00  0.00    +0.000 HD
ENDROOT
BRANCH   6  11
ATOM     11  C   UNL     1      -9.964  -3.404  14.136  0.00  0.00    +0.000 C 
ATOM     12  C   UNL     1     -10.639  -2.290  14.975  0.00  0.00    +0.000 C 
ATOM     13  C   UNL     1     -11.353  -1.283  14.053  0.00  0.00    +0.000 C 
ATOM     14  C   UNL     1     -10.319  -0.601  13.146  0.00  0.00    +0.000 C 
ATOM     15  C   UNL     1      -9.579  -1.659  12.310  0.00  0.00    +0.000 C 
ATOM     16  C   UNL     1     -10.608  -2.367  11.414  0.00  0.00    +0.000 C 
ATOM     17  C   UNL     1     -11.663  -3.061  12.280  0.00  0.00    +0.000 C 
ATOM     18  C   UNL     1     -12.375  -2.038  13.184  0.00  0.00    +0.000 C 
ATOM     19  C   UNL     1     -10.958  -4.093  13.162  0.00  0.00    +0.000 C 
ATOM     20  C   UNL     1      -8.903  -2.688  13.246  0.00  0.00    +0.000 C 
ATOM     21  H   UNL     1      -9.885  -1.766  15.581  0.00  0.00    +0.000 HD
ATOM     22  H   UNL     1     -11.363  -2.695  15.689  0.00  0.00    +0.000 HD
ATOM     23  H   UNL     1     -11.869  -0.528  14.659  0.00  0.00    +0.000 HD
ATOM     24  H   UNL     1      -9.604  -0.028  13.748  0.00  0.00    +0.000 HD
ATOM     25  H   UNL     1     -10.822   0.117  12.483  0.00  0.00    +0.000 HD
ATOM     26  H   UNL     1      -8.822  -1.173  11.684  0.00  0.00    +0.000 HD
ATOM     27  H   UNL     1     -10.106  -3.102  10.773  0.00  0.00    +0.000 HD
ATOM     28  H   UNL     1     -11.094  -1.644  10.749  0.00  0.00    +0.000 HD
ATOM     29  H   UNL     1     -12.397  -3.567  11.644  0.00  0.00    +0.000 HD
ATOM     30  H   UNL     1     -13.103  -2.551  13.828  0.00  0.00    +0.000 HD
ATOM     31  H   UNL     1     -12.940  -1.330  12.569  0.00  0.00    +0.000 HD
ATOM     32  H   UNL     1     -10.419  -4.821  12.538  0.00  0.00    +0.000 HD
ATOM     33  H   UNL     1     -11.730  -4.665  13.680  0.00  0.00    +0.000 HD
ATOM     34  H   UNL     1      -8.158  -2.178  13.874  0.00  0.00    +0.000 HD
ATOM     35  H   UNL     1      -8.347  -3.423  12.650  0.00  0.00    +0.000 HD
ENDBRANCH   6  11
BRANCH   7  36
ATOM     36  N   UNL     1      -7.976  -6.601  16.201  0.00  0.00    +0.000 N 
ATOM     37  H   UNL     1      -7.744  -7.599  16.265  0.00  0.00    +0.000 HD
ATOM     38  H   UNL     1      -7.456  -6.089  16.911  0.00  0.00    +0.000 HD
ENDBRANCH   7  36
BRANCH   1  39
ATOM     39  N   UNL     1      -9.568  -8.323  17.868  0.00  0.00    +0.000 N 
ATOM     40  H   UNL     1     -10.069  -8.417  18.752  0.00  0.00    +0.000 HD
BRANCH  39  45
ATOM     41  C   UNL     1      -8.766 -11.838  17.514  0.00  0.00    +0.000 A 
ATOM     42  C   UNL     1      -8.874 -12.041  16.143  0.00  0.00    +0.000 A 
ATOM     43  C   UNL     1      -9.277 -10.982  15.340  0.00  0.00    +0.000 A 
ATOM     44  C   UNL     1      -9.556  -9.751  15.919  0.00  0.00    +0.000 A 
ATOM     45  C   UNL     1      -9.378  -9.599  17.289  0.00  0.00    +0.000 A 
ATOM     46  N   UNL     1      -9.015 -10.633  18.101  0.00  0.00    +0.000 NA
ATOM     47  H   UNL     1      -8.651 -13.005  15.696  0.00  0.00    +0.000 HD
ATOM     48  H   UNL     1      -9.361 -11.112  14.263  0.00  0.00    +0.000 HD
ATOM     49  H   UNL     1      -9.867  -8.921  15.294  0.00  0.00    +0.000 HD
BRANCH  41  50
ATOM     50  C   UNL     1      -8.365 -12.971  18.414  0.00  0.00    +0.000 C 
ATOM     51  H   UNL     1      -8.265 -13.912  17.863  0.00  0.00    +0.000 HD
ATOM     52  H   UNL     1      -9.116 -13.108  19.198  0.00  0.00    +0.000 HD
ATOM     53  H   UNL     1      -7.399 -12.751  18.882  0.00  0.00    +0.000 HD
ENDBRANCH  41  50
ENDBRANCH  39  45
ENDBRANCH   1  39
TORSDOF 5
ENDMDL
