REMARK  Name = 
REMARK  9 active torsions:
REMARK  status: ('A' for Active; 'I' for Inactive)
REMARK    1  A    between atoms: C_1  and  C_2
REMARK    2  A    between atoms: C_4  and  C_5
REMARK    3  A    between atoms: N_7  and  C_8
REMARK    4  A    between atoms: C_8  and  C_9
REMARK    5  A    between atoms: C_8  and  C_10
REMARK    6  A    between atoms: C_8  and  C_11
REMARK    7  A    between atoms: C_11  and  N_12
REMARK    8  A    between atoms: N_15  and  N_16
REMARK    9  A    between atoms: N_19  and  C_20
REMARK                            x       y       z     vdW  Elec       q    Type
REMARK                         _______ _______ _______ _____ _____    ______ ____
ROOT
ATOM      1  C   UNL     1       3.156   1.298   0.963  0.00  0.00    +0.000 C 
ENDROOT
BRANCH   1   6
ATOM      2  C   UNL     1       2.506   0.099  -2.788  0.00  0.00    +0.000 C 
ATOM      3  C   UNL     1       2.953  -1.345  -2.586  0.00  0.00    +0.000 C 
ATOM      4  C   UNL     1       2.388  -1.893  -1.278  0.00  0.00    +0.000 C 
ATOM      5  C   UNL     1       2.926  -1.063  -0.110  0.00  0.00    +0.000 C 
ATOM      6  N   UNL     1       2.607   0.426  -0.246  0.00  0.00    +0.000 N 
ATOM      7  C   UNL     1       2.986   0.978  -1.628  0.00  0.00    +0.000 C 
ATOM      8  H   UNL     1       1.412   0.142  -2.834  0.00  0.00    +0.000 HD
ATOM      9  H   UNL     1       4.051  -1.392  -2.556  0.00  0.00    +0.000 HD
ATOM     10  H   UNL     1       2.640  -1.973  -3.428  0.00  0.00    +0.000 HD
ATOM     11  H   UNL     1       2.764  -2.917  -1.158  0.00  0.00    +0.000 HD
ATOM     12  H   UNL     1       4.013  -1.161  -0.066  0.00  0.00    +0.000 HD
ATOM     13  H   UNL     1       2.524  -1.427   0.831  0.00  0.00    +0.000 HD
ATOM     14  H   UNL     1       1.581   0.488  -0.162  0.00  0.00    +0.000 HD
ATOM     15  H   UNL     1       4.074   1.081  -1.652  0.00  0.00    +0.000 HD
ATOM     16  H   UNL     1       2.517   1.961  -1.725  0.00  0.00    +0.000 HD
BRANCH   2  17
ATOM     17  C   UNL     1       3.011   0.623  -4.134  0.00  0.00    +0.000 C 
ATOM     18  H   UNL     1       2.670  -0.023  -4.951  0.00  0.00    +0.000 HD
ATOM     19  H   UNL     1       4.105   0.661  -4.170  0.00  0.00    +0.000 HD
ATOM     20  H   UNL     1       2.626   1.630  -4.327  0.00  0.00    +0.000 HD
ENDBRANCH   2  17
BRANCH   4  21
ATOM     21  C   UNL     1       0.859  -1.983  -1.316  0.00  0.00    +0.000 C 
ATOM     22  H   UNL     1       0.374  -1.002  -1.305  0.00  0.00    +0.000 HD
ATOM     23  H   UNL     1       0.484  -2.543  -0.455  0.00  0.00    +0.000 HD
ATOM     24  H   UNL     1       0.527  -2.507  -2.219  0.00  0.00    +0.000 HD
ENDBRANCH   4  21
ENDBRANCH   1   6
BRANCH   1  25
ATOM     25  C   UNL     1       4.688   1.154   1.055  0.00  0.00    +0.000 C 
ATOM     26  H   UNL     1       5.189   1.436   0.124  0.00  0.00    +0.000 HD
ATOM     27  H   UNL     1       4.992   0.134   1.307  0.00  0.00    +0.000 HD
ATOM     28  H   UNL     1       5.099   1.801   1.839  0.00  0.00    +0.000 HD
ENDBRANCH   1  25
BRANCH   1  29
ATOM     29  C   UNL     1       2.794   2.777   0.708  0.00  0.00    +0.000 C 
ATOM     30  H   UNL     1       3.281   3.179  -0.185  0.00  0.00    +0.000 HD
ATOM     31  H   UNL     1       3.122   3.412   1.541  0.00  0.00    +0.000 HD
ATOM     32  H   UNL     1       1.712   2.911   0.596  0.00  0.00    +0.000 HD
ENDBRANCH   1  29
BRANCH   1  33
ATOM     33  C   UNL     1       2.502   0.870   2.332  0.00  0.00    +0.000 C 
ATOM     34  H   UNL     1       2.906   1.498   3.139  0.00  0.00    +0.000 HD
ATOM     35  H   UNL     1       2.775  -0.159   2.591  0.00  0.00    +0.000 HD
BRANCH  33  36
ATOM     36  N   UNL     1       1.045   1.014   2.382  0.00  0.00    +0.000 N 
ATOM     37  C   UNL     1       0.179  -0.018   2.142  0.00  0.00    +0.000 C 
ATOM     38  O   UNL     1       0.544  -1.116   1.728  0.00  0.00    +0.000 OA
ATOM     39  N   UNL     1      -1.136   0.308   2.296  0.00  0.00    +0.000 N 
ATOM     40  H   UNL     1       0.661   1.860   2.792  0.00  0.00    +0.000 HD
ATOM     41  H   UNL     1      -1.468   1.163   2.734  0.00  0.00    +0.000 HD
BRANCH  39  42
ATOM     42  N   UNL     1      -2.146  -0.644   1.996  0.00  0.00    +0.000 N 
ATOM     43  C   UNL     1      -3.355  -0.112   1.537  0.00  0.00    +0.000 C 
ATOM     44  O   UNL     1      -3.478   1.110   1.440  0.00  0.00    +0.000 OA
ATOM     45  N   UNL     1      -4.317  -1.061   1.312  0.00  0.00    +0.000 N 
ATOM     46  H   UNL     1      -1.822  -1.532   1.622  0.00  0.00    +0.000 HD
ATOM     47  H   UNL     1      -4.143  -1.988   1.683  0.00  0.00    +0.000 HD
BRANCH  45  48
ATOM     48  C   UNL     1      -5.651  -0.804   0.888  0.00  0.00    +0.000 A 
ATOM     49  C   UNL     1      -6.045   0.401   0.298  0.00  0.00    +0.000 A 
ATOM     50  C   UNL     1      -7.373   0.612  -0.099  0.00  0.00    +0.000 A 
ATOM     51  C   UNL     1      -8.325  -0.384   0.089  0.00  0.00    +0.000 A 
ATOM     52  C   UNL     1      -7.948  -1.593   0.667  0.00  0.00    +0.000 A 
ATOM     53  C   UNL     1      -6.618  -1.807   1.056  0.00  0.00    +0.000 A 
ATOM     54  H   UNL     1      -5.340   1.207   0.125  0.00  0.00    +0.000 HD
ATOM     55  H   UNL     1      -7.655   1.559  -0.553  0.00  0.00    +0.000 HD
ATOM     56  H   UNL     1      -9.355  -0.217  -0.217  0.00  0.00    +0.000 HD
ATOM     57  H   UNL     1      -8.697  -2.368   0.820  0.00  0.00    +0.000 HD
ATOM     58  H   UNL     1      -6.366  -2.760   1.513  0.00  0.00    +0.000 HD
ENDBRANCH  45  48
ENDBRANCH  39  42
ENDBRANCH  33  36
ENDBRANCH   1  33
TORSDOF 9
