
 OpenBabel01112423043D

 42 44  0  0  1  0  0  0  0  0999 V2000
   -2.0611    1.5159   -4.3719 C   0  0  0  0  0  0  0  0  0  0  0  0
   -2.2763    0.4583   -3.3649 C   0  0  0  0  0  0  0  0  0  0  0  0
   -1.9394    0.3189   -2.0403 C   0  0  0  0  0  0  0  0  0  0  0  0
   -2.3752   -0.9763   -1.7036 C   0  0  0  0  0  0  0  0  0  0  0  0
   -2.1359   -1.5546   -0.5040 N   0  0  0  0  0  0  0  0  0  0  0  0
   -2.2462   -2.9293   -0.2278 C   0  0  0  0  0  0  0  0  0  0  0  0
   -2.8501   -3.7324   -1.1117 N   0  3  0  0  0  0  0  0  0  0  0  0
   -2.9388   -5.0374   -0.8896 C   0  0  0  0  0  0  0  0  0  0  0  0
   -2.4743   -5.6522    0.2089 N   0  0  0  0  0  0  0  0  0  0  0  0
   -1.8621   -4.8812    1.1252 C   0  0  0  0  0  0  0  0  0  0  0  0
   -1.3606   -5.4545    2.3033 N   0  0  0  0  0  0  0  0  0  0  0  0
   -1.8359   -6.8047    2.6490 C   0  0  1  0  0  0  0  0  0  0  0  0
   -1.0198   -7.8999    1.9603 C   0  0  0  0  0  0  0  0  0  0  0  0
   -1.7934   -7.0189    4.1580 C   0  0  0  0  0  0  0  0  0  0  0  0
   -2.7715   -7.8353    4.7563 C   0  0  0  0  0  0  0  0  0  0  0  0
   -2.7356   -8.1164    6.1232 C   0  0  0  0  0  0  0  0  0  0  0  0
   -1.7220   -7.5859    6.9160 C   0  0  0  0  0  0  0  0  0  0  0  0
   -0.7431   -6.7779    6.3425 C   0  0  0  0  0  0  0  0  0  0  0  0
   -0.7738   -6.4999    4.9729 C   0  0  0  0  0  0  0  0  0  0  0  0
   -1.7385   -3.4844    0.9614 C   0  0  0  0  0  0  0  0  0  0  0  0
   -1.0187   -2.6931    1.8967 N   0  0  0  0  0  0  0  0  0  0  0  0
   -2.9830   -1.5730   -2.7399 N   0  0  0  0  0  0  0  0  0  0  0  0
   -2.9139   -0.6677   -3.7847 O   0  0  0  0  0  0  0  0  0  0  0  0
   -1.7057    2.4376   -3.8980 H   0  0  0  0  0  0  0  0  0  0  0  0
   -2.9871    1.7399   -4.9069 H   0  0  0  0  0  0  0  0  0  0  0  0
   -1.3059    1.1940   -5.0961 H   0  0  0  0  0  0  0  0  0  0  0  0
   -1.4184    1.0451   -1.4283 H   0  0  0  0  0  0  0  0  0  0  0  0
   -1.5020   -1.0924    0.1469 H   0  0  0  0  0  0  0  0  0  0  0  0
   -3.2176   -3.3117   -1.9680 H   0  0  0  0  0  0  0  0  0  0  0  0
   -3.4063   -5.6479   -1.6554 H   0  0  0  0  0  0  0  0  0  0  0  0
   -0.3470   -5.3754    2.3417 H   0  0  0  0  0  0  0  0  0  0  0  0
   -2.8888   -6.8952    2.3492 H   0  0  0  0  0  0  0  0  0  0  0  0
    0.0064   -7.9435    2.3422 H   0  0  0  0  0  0  0  0  0  0  0  0
   -0.9653   -7.7540    0.8775 H   0  0  0  0  0  0  0  0  0  0  0  0
   -1.4758   -8.8819    2.1378 H   0  0  0  0  0  0  0  0  0  0  0  0
   -3.5654   -8.2757    4.1560 H   0  0  0  0  0  0  0  0  0  0  0  0
   -3.4924   -8.7586    6.5676 H   0  0  0  0  0  0  0  0  0  0  0  0
   -1.6895   -7.8106    7.9791 H   0  0  0  0  0  0  0  0  0  0  0  0
    0.0539   -6.3750    6.9626 H   0  0  0  0  0  0  0  0  0  0  0  0
    0.0171   -5.8840    4.5555 H   0  0  0  0  0  0  0  0  0  0  0  0
   -0.8233   -3.2428    2.7407 H   0  0  0  0  0  0  0  0  0  0  0  0
   -1.5030   -1.8410    2.1738 H   0  0  0  0  0  0  0  0  0  0  0  0
  1  2  1  0  0  0  0
  1 24  1  0  0  0  0
  1 25  1  0  0  0  0
  1 26  1  0  0  0  0
  2  3  2  0  0  0  0
  2 23  1  0  0  0  0
  3  4  1  0  0  0  0
  3 27  1  0  0  0  0
  4  5  1  0  0  0  0
  4 22  2  0  0  0  0
  5  6  1  0  0  0  0
  5 28  1  0  0  0  0
  6  7  1  0  0  0  0
  6 20  2  0  0  0  0
  7  8  2  0  0  0  0
  7 29  1  0  0  0  0
  8  9  1  0  0  0  0
  8 30  1  0  0  0  0
  9 10  2  0  0  0  0
 10 11  1  0  0  0  0
 10 20  1  0  0  0  0
 11 12  1  0  0  0  0
 11 31  1  0  0  0  0
 12 13  1  0  0  0  0
 12 14  1  0  0  0  0
 12 32  1  6  0  0  0
 13 33  1  0  0  0  0
 13 34  1  0  0  0  0
 13 35  1  0  0  0  0
 14 15  1  0  0  0  0
 14 19  2  0  0  0  0
 15 16  2  0  0  0  0
 15 36  1  0  0  0  0
 16 17  1  0  0  0  0
 16 37  1  0  0  0  0
 17 18  2  0  0  0  0
 17 38  1  0  0  0  0
 18 19  1  0  0  0  0
 18 39  1  0  0  0  0
 19 40  1  0  0  0  0
 20 21  1  0  0  0  0
 21 41  1  0  0  0  0
 21 42  1  0  0  0  0
 22 23  1  0  0  0  0
M  CHG  1   7   1
M  END
$$$$
