REMARK  Name = 
REMARK  5 active torsions:
REMARK  status: ('A' for Active; 'I' for Inactive)
REMARK    1  A    between atoms: C_1  and  C_2
REMARK    2  A    between atoms: C_2  and  O_3
REMARK    3  A    between atoms: O_3  and  C_4
REMARK    4  A    between atoms: C_7  and  N_8
REMARK    5  A    between atoms: N_11  and  C_12
REMARK                            x       y       z     vdW  Elec       q    Type
REMARK                         _______ _______ _______ _____ _____    ______ ____
ROOT
ATOM      1  N   UNL     1      -0.907  -1.132   1.485  0.00  0.00    +0.000 N 
ATOM      2  C   UNL     1       0.032  -0.731   0.574  0.00  0.00    +0.000 C 
ATOM      3  N   UNL     1      -0.416  -0.609  -0.711  0.00  0.00    +0.000 N 
ATOM      4  N   UNL     1       1.261  -0.530   0.949  0.00  0.00    +0.000 NA
ATOM      5  H   UNL     1      -0.529  -1.377   2.396  0.00  0.00    +0.000 HD
ATOM      6  H   UNL     1      -1.267  -1.151  -0.868  0.00  0.00    +0.000 HD
ATOM      7  H   UNL     1       0.236  -0.829  -1.455  0.00  0.00    +0.000 HD
ENDROOT
BRANCH   4   8
ATOM      8  C   UNL     1       2.205  -0.026   0.130  0.00  0.00    +0.000 A 
ATOM      9  N   UNL     1       3.457  -0.410   0.274  0.00  0.00    +0.000 N 
ATOM     10  C   UNL     1       4.470   0.085  -0.516  0.00  0.00    +0.000 A 
ATOM     11  C   UNL     1       4.224   0.961  -1.502  0.00  0.00    +0.000 A 
ATOM     12  C   UNL     1       2.842   1.412  -1.678  0.00  0.00    +0.000 A 
ATOM     13  O   UNL     1       2.437   2.186  -2.523  0.00  0.00    +0.000 OA
ATOM     14  N   UNL     1       1.923   0.865  -0.780  0.00  0.00    +0.000 N 
ATOM     15  C   UNL     1       5.262   1.506  -2.436  0.00  0.00    +0.000 C 
ATOM     16  C   UNL     1       6.586   0.742  -2.349  0.00  0.00    +0.000 C 
ATOM     17  C   UNL     1       6.952   0.456  -0.895  0.00  0.00    +0.000 C 
ATOM     18  C   UNL     1       5.871  -0.388  -0.210  0.00  0.00    +0.000 C 
ATOM     19  H   UNL     1       3.627  -1.078   1.016  0.00  0.00    +0.000 HD
ATOM     20  H   UNL     1       0.957   1.159  -0.827  0.00  0.00    +0.000 HD
ATOM     21  H   UNL     1       5.435   2.561  -2.190  0.00  0.00    +0.000 HD
ATOM     22  H   UNL     1       4.905   1.468  -3.471  0.00  0.00    +0.000 HD
ATOM     23  H   UNL     1       7.379   1.323  -2.833  0.00  0.00    +0.000 HD
ATOM     24  H   UNL     1       6.504  -0.205  -2.897  0.00  0.00    +0.000 HD
ATOM     25  H   UNL     1       7.072   1.407  -0.359  0.00  0.00    +0.000 HD
ATOM     26  H   UNL     1       7.916  -0.062  -0.843  0.00  0.00    +0.000 HD
ATOM     27  H   UNL     1       6.042  -0.361   0.874  0.00  0.00    +0.000 HD
ATOM     28  H   UNL     1       5.966  -1.433  -0.527  0.00  0.00    +0.000 HD
ENDBRANCH   4   8
BRANCH   1  32
ATOM     29  C   UNL     1      -5.125  -0.571   1.595  0.00  0.00    +0.000 A 
ATOM     30  C   UNL     1      -4.358   0.099   0.647  0.00  0.00    +0.000 A 
ATOM     31  C   UNL     1      -2.965  -0.026   0.642  0.00  0.00    +0.000 A 
ATOM     32  C   UNL     1      -2.294  -0.849   1.553  0.00  0.00    +0.000 A 
ATOM     33  C   UNL     1      -3.076  -1.497   2.523  0.00  0.00    +0.000 A 
ATOM     34  C   UNL     1      -4.472  -1.348   2.550  0.00  0.00    +0.000 A 
ATOM     35  H   UNL     1      -4.808   0.731  -0.111  0.00  0.00    +0.000 HD
ATOM     36  H   UNL     1      -2.429   0.561  -0.097  0.00  0.00    +0.000 HD
ATOM     37  H   UNL     1      -2.615  -2.135   3.274  0.00  0.00    +0.000 HD
ATOM     38  H   UNL     1      -5.054  -1.858   3.316  0.00  0.00    +0.000 HD
BRANCH  29  39
ATOM     39  O   UNL     1      -6.492  -0.533   1.677  0.00  0.00    +0.000 OA
BRANCH  39  40
ATOM     40  C   UNL     1      -7.164   0.197   0.646  0.00  0.00    +0.000 C 
ATOM     41  H   UNL     1      -6.864   1.251   0.678  0.00  0.00    +0.000 HD
ATOM     42  H   UNL     1      -6.927  -0.232  -0.335  0.00  0.00    +0.000 HD
BRANCH  40  43
ATOM     43  C   UNL     1      -8.664   0.117   0.860  0.00  0.00    +0.000 C 
ATOM     44  H   UNL     1      -9.191   0.644   0.058  0.00  0.00    +0.000 HD
ATOM     45  H   UNL     1      -8.942   0.569   1.817  0.00  0.00    +0.000 HD
ATOM     46  H   UNL     1      -9.001  -0.924   0.880  0.00  0.00    +0.000 HD
ENDBRANCH  40  43
ENDBRANCH  39  40
ENDBRANCH  29  39
ENDBRANCH   1  32
TORSDOF 5
