
 OpenBabel01112423063D

 35 36  0  0  0  0  0  0  0  0999 V2000
    1.1715    0.1934   -0.3872 C   0  0  0  0  0  0  0  0  0  0  0  0
    2.5046    0.7743   -0.1661 N   0  0  0  0  0  0  0  0  0  0  0  0
    2.4373    2.2252   -0.4024 C   0  0  0  0  0  0  0  0  0  0  0  0
    2.8765    0.5506    1.1909 N   0  0  0  0  0  0  0  0  0  0  0  0
    4.2548    0.3665    1.5001 C   0  0  0  0  0  0  0  0  0  0  0  0
    5.1912    0.9935    0.7535 N   0  0  0  0  0  0  0  0  0  0  0  0
    6.4418    0.9700    1.2117 C   0  0  0  0  0  0  0  0  0  0  0  0
    6.8163    0.3822    2.3417 N   0  3  0  0  0  0  0  0  0  0  0  0
    5.9292   -0.2666    3.1064 C   0  0  0  0  0  0  0  0  0  0  0  0
    6.3616   -0.8306    4.3238 N   0  0  0  0  0  0  0  0  0  0  0  0
    7.5521   -0.4997    5.0033 C   0  0  0  0  0  0  0  0  0  0  0  0
    7.9273    0.8467    5.1551 C   0  0  0  0  0  0  0  0  0  0  0  0
    9.1846    1.1912    5.6402 C   0  0  0  0  0  0  0  0  0  0  0  0
   10.0806    0.1899    6.0022 C   0  0  0  0  0  0  0  0  0  0  0  0
   11.8185    0.6518    6.5732 Br  0  0  0  0  0  0  0  0  0  0  0  0
    9.7036   -1.1512    5.9184 C   0  0  0  0  0  0  0  0  0  0  0  0
    8.4419   -1.4956    5.4207 C   0  0  0  0  0  0  0  0  0  0  0  0
    4.5833   -0.3333    2.6879 C   0  0  0  0  0  0  0  0  0  0  0  0
    3.5885   -0.9356    3.4880 N   0  0  0  0  0  0  0  0  0  0  0  0
    0.8272    0.3806   -1.4097 H   0  0  0  0  0  0  0  0  0  0  0  0
    0.4258    0.5944    0.3106 H   0  0  0  0  0  0  0  0  0  0  0  0
    1.2093   -0.8947   -0.2590 H   0  0  0  0  0  0  0  0  0  0  0  0
    2.0200    2.4355   -1.3944 H   0  0  0  0  0  0  0  0  0  0  0  0
    3.4372    2.6707   -0.3881 H   0  0  0  0  0  0  0  0  0  0  0  0
    1.8193    2.7384    0.3440 H   0  0  0  0  0  0  0  0  0  0  0  0
    2.3085   -0.1319    1.6866 H   0  0  0  0  0  0  0  0  0  0  0  0
    7.2056    1.4898    0.6401 H   0  0  0  0  0  0  0  0  0  0  0  0
    7.7881    0.4152    2.6335 H   0  0  0  0  0  0  0  0  0  0  0  0
    6.0482   -1.7883    4.4638 H   0  0  0  0  0  0  0  0  0  0  0  0
    7.2294    1.6466    4.9091 H   0  0  0  0  0  0  0  0  0  0  0  0
    9.4611    2.2415    5.7363 H   0  0  0  0  0  0  0  0  0  0  0  0
   10.3952   -1.9338    6.2280 H   0  0  0  0  0  0  0  0  0  0  0  0
    8.1865   -2.5512    5.3476 H   0  0  0  0  0  0  0  0  0  0  0  0
    3.8875   -1.4096    4.3343 H   0  0  0  0  0  0  0  0  0  0  0  0
    2.8770   -1.4641    2.9882 H   0  0  0  0  0  0  0  0  0  0  0  0
  1  2  1  0  0  0  0
  1 20  1  0  0  0  0
  1 21  1  0  0  0  0
  1 22  1  0  0  0  0
  2  3  1  0  0  0  0
  2  4  1  0  0  0  0
  3 23  1  0  0  0  0
  3 24  1  0  0  0  0
  3 25  1  0  0  0  0
  4  5  1  0  0  0  0
  4 26  1  0  0  0  0
  5  6  1  0  0  0  0
  5 18  2  0  0  0  0
  6  7  2  0  0  0  0
  7  8  1  0  0  0  0
  7 27  1  0  0  0  0
  8  9  2  0  0  0  0
  8 28  1  0  0  0  0
  9 10  1  0  0  0  0
  9 18  1  0  0  0  0
 10 11  1  0  0  0  0
 10 29  1  0  0  0  0
 11 12  1  0  0  0  0
 11 17  2  0  0  0  0
 12 13  2  0  0  0  0
 12 30  1  0  0  0  0
 13 14  1  0  0  0  0
 13 31  1  0  0  0  0
 14 15  1  0  0  0  0
 14 16  2  0  0  0  0
 16 17  1  0  0  0  0
 16 32  1  0  0  0  0
 17 33  1  0  0  0  0
 18 19  1  0  0  0  0
 19 34  1  0  0  0  0
 19 35  1  0  0  0  0
M  CHG  1   8   1
M  END
$$$$
