MODEL 1
REMARK VINA RESULT:    -8.575      0.000      0.000
REMARK INTER + INTRA:         -12.393
REMARK INTER:                 -11.834
REMARK INTRA:                  -0.559
REMARK UNBOUND:                -0.559
REMARK  Name = 
REMARK  9 active torsions:
REMARK  status: ('A' for Active; 'I' for Inactive)
REMARK    1  A    between atoms: C_1  and  C_2
REMARK    2  A    between atoms: N_4  and  C_5
REMARK    3  A    between atoms: C_8  and  C_9
REMARK    4  A    between atoms: C_12  and  C_13
REMARK    5  A    between atoms: C_13  and  C_14
REMARK    6  A    between atoms: C_13  and  C_15
REMARK    7  A    between atoms: C_13  and  C_16
REMARK    8  A    between atoms: C_19  and  N_20
REMARK    9  A    between atoms: C_21  and  C_23
REMARK                            x       y       z     vdW  Elec       q    Type
REMARK                         _______ _______ _______ _____ _____    ______ ____
ROOT
ATOM      1  C   UNL     1     -11.030  -7.063  17.131  0.00  0.00    +0.000 A 
ATOM      2  N   UNL     1     -11.135  -6.344  16.001  0.00  0.00    +0.000 NA
ATOM      3  N   UNL     1      -9.914  -5.799  15.835  0.00  0.00    +0.000 N 
ATOM      4  C   UNL     1      -9.049  -6.139  16.831  0.00  0.00    +0.000 A 
ATOM      5  C   UNL     1      -9.744  -6.932  17.714  0.00  0.00    +0.000 A 
ATOM      6  C   UNL     1      -9.108  -7.460  18.958  0.00  0.00    +0.000 C 
ATOM      7  C   UNL     1      -7.821  -6.651  19.289  0.00  0.00    +0.000 C 
ATOM      8  C   UNL     1      -7.005  -6.257  18.030  0.00  0.00    +0.000 C 
ATOM      9  O   UNL     1      -5.778  -6.159  18.028  0.00  0.00    +0.000 OA
ATOM     10  N   UNL     1      -7.722  -5.811  16.935  0.00  0.00    +0.000 N 
ATOM     11  H   UNL     1      -9.825  -7.362  19.784  0.00  0.00    +0.000 HD
ATOM     12  H   UNL     1      -7.167  -7.242  19.944  0.00  0.00    +0.000 HD
ATOM     13  H   UNL     1      -7.200  -5.421  16.161  0.00  0.00    +0.000 HD
ENDROOT
BRANCH   6  14
ATOM     14  C   UNL     1      -8.801  -8.934  18.727  0.00  0.00    +0.000 A 
ATOM     15  C   UNL     1      -8.291  -9.766  19.733  0.00  0.00    +0.000 A 
ATOM     16  C   UNL     1      -8.154 -11.142  19.537  0.00  0.00    +0.000 A 
ATOM     17  C   UNL     1      -8.505 -11.753  18.325  0.00  0.00    +0.000 A 
ATOM     18  C   UNL     1      -8.988 -10.911  17.306  0.00  0.00    +0.000 A 
ATOM     19  C   UNL     1      -9.142  -9.530  17.505  0.00  0.00    +0.000 A 
ATOM     20  H   UNL     1      -8.008  -9.369  20.704  0.00  0.00    +0.000 HD
ATOM     21  H   UNL     1      -7.779 -11.721  20.376  0.00  0.00    +0.000 HD
ATOM     22  H   UNL     1      -9.281 -11.323  16.343  0.00  0.00    +0.000 HD
ATOM     23  H   UNL     1      -9.559  -8.933  16.697  0.00  0.00    +0.000 HD
BRANCH  17  24
ATOM     24  C   UNL     1      -8.390 -13.270  18.108  0.00  0.00    +0.000 C 
BRANCH  24  25
ATOM     25  C   UNL     1      -9.543 -14.073  18.756  0.00  0.00    +0.000 C 
ATOM     26  H   UNL     1      -9.176 -14.996  19.223  0.00  0.00    +0.000 HD
ATOM     27  H   UNL     1     -10.307 -14.346  18.018  0.00  0.00    +0.000 HD
ATOM     28  H   UNL     1     -10.042 -13.492  19.539  0.00  0.00    +0.000 HD
ENDBRANCH  24  25
BRANCH  24  29
ATOM     29  C   UNL     1      -8.408 -13.589  16.596  0.00  0.00    +0.000 C 
ATOM     30  H   UNL     1      -7.870 -12.824  16.024  0.00  0.00    +0.000 HD
ATOM     31  H   UNL     1      -9.435 -13.629  16.215  0.00  0.00    +0.000 HD
ATOM     32  H   UNL     1      -7.944 -14.556  16.371  0.00  0.00    +0.000 HD
ENDBRANCH  24  29
BRANCH  24  33
ATOM     33  C   UNL     1      -7.073 -13.791  18.718  0.00  0.00    +0.000 C 
ATOM     34  H   UNL     1      -7.063 -14.887  18.755  0.00  0.00    +0.000 HD
ATOM     35  H   UNL     1      -6.914 -13.424  19.737  0.00  0.00    +0.000 HD
ATOM     36  H   UNL     1      -6.210 -13.471  18.123  0.00  0.00    +0.000 HD
ENDBRANCH  24  33
ENDBRANCH  17  24
ENDBRANCH   6  14
BRANCH   1  37
ATOM     37  C   UNL     1     -12.181  -7.871  17.606  0.00  0.00    +0.000 C 
ATOM     38  H   UNL     1     -13.013  -7.233  17.924  0.00  0.00    +0.000 HD
ATOM     39  H   UNL     1     -11.893  -8.499  18.455  0.00  0.00    +0.000 HD
ATOM     40  H   UNL     1     -12.548  -8.517  16.801  0.00  0.00    +0.000 HD
ENDBRANCH   1  37
BRANCH   3  41
ATOM     41  C   UNL     1      -9.660  -4.926  14.718  0.00  0.00    +0.000 C 
ATOM     42  H   UNL     1     -10.086  -3.940  14.916  0.00  0.00    +0.000 HD
ATOM     43  H   UNL     1     -10.120  -5.361  13.829  0.00  0.00    +0.000 HD
ATOM     44  H   UNL     1      -8.577  -4.843  14.587  0.00  0.00    +0.000 HD
ENDBRANCH   3  41
BRANCH   7  45
ATOM     45  N   UNL     1      -8.124  -5.380  19.970  0.00  0.00    +0.000 N 
ATOM     46  C   UNL     1      -7.174  -4.705  20.697  0.00  0.00    +0.000 C 
ATOM     47  O   UNL     1      -6.023  -5.107  20.826  0.00  0.00    +0.000 OA
ATOM     48  H   UNL     1      -9.034  -4.967  19.812  0.00  0.00    +0.000 HD
BRANCH  46  49
ATOM     49  C   UNL     1      -7.612  -3.434  21.333  0.00  0.00    +0.000 A 
ATOM     50  C   UNL     1      -6.870  -2.820  22.351  0.00  0.00    +0.000 A 
ATOM     51  C   UNL     1      -7.288  -1.594  22.875  0.00  0.00    +0.000 A 
ATOM     52  C   UNL     1      -8.441  -0.980  22.386  0.00  0.00    +0.000 A 
ATOM     53  C   UNL     1      -9.185  -1.593  21.377  0.00  0.00    +0.000 A 
ATOM     54  C   UNL     1      -8.771  -2.817  20.850  0.00  0.00    +0.000 A 
ATOM     55  H   UNL     1      -5.947  -3.256  22.721  0.00  0.00    +0.000 HD
ATOM     56  H   UNL     1      -6.704  -1.105  23.651  0.00  0.00    +0.000 HD
ATOM     57  H   UNL     1      -8.756  -0.018  22.782  0.00  0.00    +0.000 HD
ATOM     58  H   UNL     1     -10.082  -1.112  20.992  0.00  0.00    +0.000 HD
ATOM     59  H   UNL     1      -9.349  -3.286  20.057  0.00  0.00    +0.000 HD
ENDBRANCH  46  49
ENDBRANCH   7  45
TORSDOF 9
ENDMDL
MODEL 2
REMARK VINA RESULT:    -7.686      4.715      7.381
REMARK INTER + INTRA:         -11.165
REMARK INTER:                 -10.392
REMARK INTRA:                  -0.773
REMARK UNBOUND:                -0.559
REMARK  Name = 
REMARK  9 active torsions:
REMARK  status: ('A' for Active; 'I' for Inactive)
REMARK    1  A    between atoms: C_1  and  C_2
REMARK    2  A    between atoms: N_4  and  C_5
REMARK    3  A    between atoms: C_8  and  C_9
REMARK    4  A    between atoms: C_12  and  C_13
REMARK    5  A    between atoms: C_13  and  C_14
REMARK    6  A    between atoms: C_13  and  C_15
REMARK    7  A    between atoms: C_13  and  C_16
REMARK    8  A    between atoms: C_19  and  N_20
REMARK    9  A    between atoms: C_21  and  C_23
REMARK                            x       y       z     vdW  Elec       q    Type
REMARK                         _______ _______ _______ _____ _____    ______ ____
ROOT
ATOM      1  C   UNL     1      -6.571  -3.513  22.395  0.00  0.00    +0.000 A 
ATOM      2  N   UNL     1      -6.431  -4.116  23.587  0.00  0.00    +0.000 NA
ATOM      3  N   UNL     1      -7.614  -3.923  24.202  0.00  0.00    +0.000 N 
ATOM      4  C   UNL     1      -8.487  -3.205  23.441  0.00  0.00    +0.000 A 
ATOM      5  C   UNL     1      -7.837  -2.888  22.273  0.00  0.00    +0.000 A 
ATOM      6  C   UNL     1      -8.491  -2.066  21.212  0.00  0.00    +0.000 C 
ATOM      7  C   UNL     1      -9.717  -1.307  21.799  0.00  0.00    +0.000 C 
ATOM      8  C   UNL     1     -10.519  -2.146  22.828  0.00  0.00    +0.000 C 
ATOM      9  O   UNL     1     -11.737  -2.041  22.976  0.00  0.00    +0.000 OA
ATOM     10  N   UNL     1      -9.788  -2.887  23.738  0.00  0.00    +0.000 N 
ATOM     11  H   UNL     1      -7.759  -1.339  20.832  0.00  0.00    +0.000 HD
ATOM     12  H   UNL     1     -10.401  -1.020  20.990  0.00  0.00    +0.000 HD
ATOM     13  H   UNL     1     -10.292  -3.326  24.497  0.00  0.00    +0.000 HD
ENDROOT
BRANCH   6  14
ATOM     14  C   UNL     1      -8.901  -3.007  20.086  0.00  0.00    +0.000 A 
ATOM     15  C   UNL     1      -8.338  -4.279  19.923  0.00  0.00    +0.000 A 
ATOM     16  C   UNL     1      -8.832  -5.175  18.972  0.00  0.00    +0.000 A 
ATOM     17  C   UNL     1      -9.901  -4.840  18.129  0.00  0.00    +0.000 A 
ATOM     18  C   UNL     1     -10.443  -3.550  18.273  0.00  0.00    +0.000 A 
ATOM     19  C   UNL     1      -9.960  -2.654  19.239  0.00  0.00    +0.000 A 
ATOM     20  H   UNL     1      -7.514  -4.617  20.547  0.00  0.00    +0.000 HD
ATOM     21  H   UNL     1      -8.360  -6.153  18.929  0.00  0.00    +0.000 HD
ATOM     22  H   UNL     1     -11.277  -3.230  17.652  0.00  0.00    +0.000 HD
ATOM     23  H   UNL     1     -10.444  -1.684  19.335  0.00  0.00    +0.000 HD
BRANCH  17  24
ATOM     24  C   UNL     1     -10.475  -5.828  17.101  0.00  0.00    +0.000 C 
BRANCH  24  25
ATOM     25  C   UNL     1     -11.068  -7.106  17.741  0.00  0.00    +0.000 C 
ATOM     26  H   UNL     1     -11.908  -6.869  18.407  0.00  0.00    +0.000 HD
ATOM     27  H   UNL     1     -10.315  -7.651  18.323  0.00  0.00    +0.000 HD
ATOM     28  H   UNL     1     -11.447  -7.794  16.978  0.00  0.00    +0.000 HD
ENDBRANCH  24  25
BRANCH  24  29
ATOM     29  C   UNL     1     -11.609  -5.154  16.298  0.00  0.00    +0.000 C 
ATOM     30  H   UNL     1     -11.212  -4.612  15.432  0.00  0.00    +0.000 HD
ATOM     31  H   UNL     1     -12.156  -4.434  16.919  0.00  0.00    +0.000 HD
ATOM     32  H   UNL     1     -12.341  -5.879  15.926  0.00  0.00    +0.000 HD
ENDBRANCH  24  29
BRANCH  24  33
ATOM     33  C   UNL     1      -9.367  -6.280  16.128  0.00  0.00    +0.000 C 
ATOM     34  H   UNL     1      -8.378  -5.971  16.486  0.00  0.00    +0.000 HD
ATOM     35  H   UNL     1      -9.501  -5.864  15.124  0.00  0.00    +0.000 HD
ATOM     36  H   UNL     1      -9.356  -7.371  16.024  0.00  0.00    +0.000 HD
ENDBRANCH  24  33
ENDBRANCH  17  24
ENDBRANCH   6  14
BRANCH   1  37
ATOM     37  C   UNL     1      -5.471  -3.574  21.400  0.00  0.00    +0.000 C 
ATOM     38  H   UNL     1      -5.037  -2.584  21.222  0.00  0.00    +0.000 HD
ATOM     39  H   UNL     1      -5.832  -3.962  20.442  0.00  0.00    +0.000 HD
ATOM     40  H   UNL     1      -4.669  -4.227  21.761  0.00  0.00    +0.000 HD
ENDBRANCH   1  37
BRANCH   3  41
ATOM     41  C   UNL     1      -7.822  -4.420  25.538  0.00  0.00    +0.000 C 
ATOM     42  H   UNL     1      -8.327  -5.387  25.498  0.00  0.00    +0.000 HD
ATOM     43  H   UNL     1      -8.435  -3.699  26.082  0.00  0.00    +0.000 HD
ATOM     44  H   UNL     1      -6.845  -4.531  26.018  0.00  0.00    +0.000 HD
ENDBRANCH   3  41
BRANCH   7  45
ATOM     45  N   UNL     1      -9.320  -0.085  22.519  0.00  0.00    +0.000 N 
ATOM     46  C   UNL     1     -10.150   1.007  22.604  0.00  0.00    +0.000 C 
ATOM     47  O   UNL     1     -11.265   1.037  22.095  0.00  0.00    +0.000 OA
ATOM     48  H   UNL     1      -8.448  -0.102  23.031  0.00  0.00    +0.000 HD
BRANCH  46  49
ATOM     49  C   UNL     1      -9.627   2.175  23.360  0.00  0.00    +0.000 A 
ATOM     50  C   UNL     1     -10.068   3.481  23.106  0.00  0.00    +0.000 A 
ATOM     51  C   UNL     1      -9.594   4.540  23.885  0.00  0.00    +0.000 A 
ATOM     52  C   UNL     1      -8.685   4.300  24.916  0.00  0.00    +0.000 A 
ATOM     53  C   UNL     1      -8.240   3.001  25.167  0.00  0.00    +0.000 A 
ATOM     54  C   UNL     1      -8.711   1.941  24.392  0.00  0.00    +0.000 A 
ATOM     55  H   UNL     1     -10.805   3.690  22.337  0.00  0.00    +0.000 HD
ATOM     56  H   UNL     1      -9.949   5.552  23.702  0.00  0.00    +0.000 HD
ATOM     57  H   UNL     1      -8.331   5.123  25.532  0.00  0.00    +0.000 HD
ATOM     58  H   UNL     1      -7.535   2.813  25.973  0.00  0.00    +0.000 HD
ATOM     59  H   UNL     1      -8.368   0.929  24.598  0.00  0.00    +0.000 HD
ENDBRANCH  46  49
ENDBRANCH   7  45
TORSDOF 9
ENDMDL
MODEL 3
REMARK VINA RESULT:    -7.575      4.910     10.913
REMARK INTER + INTRA:         -11.013
REMARK INTER:                  -9.808
REMARK INTRA:                  -1.205
REMARK UNBOUND:                -0.559
REMARK  Name = 
REMARK  9 active torsions:
REMARK  status: ('A' for Active; 'I' for Inactive)
REMARK    1  A    between atoms: C_1  and  C_2
REMARK    2  A    between atoms: N_4  and  C_5
REMARK    3  A    between atoms: C_8  and  C_9
REMARK    4  A    between atoms: C_12  and  C_13
REMARK    5  A    between atoms: C_13  and  C_14
REMARK    6  A    between atoms: C_13  and  C_15
REMARK    7  A    between atoms: C_13  and  C_16
REMARK    8  A    between atoms: C_19  and  N_20
REMARK    9  A    between atoms: C_21  and  C_23
REMARK                            x       y       z     vdW  Elec       q    Type
REMARK                         _______ _______ _______ _____ _____    ______ ____
ROOT
ATOM      1  C   UNL     1     -10.036  -2.390  23.431  0.00  0.00    +0.000 A 
ATOM      2  N   UNL     1      -8.780  -2.796  23.680  0.00  0.00    +0.000 NA
ATOM      3  N   UNL     1      -8.064  -2.332  22.637  0.00  0.00    +0.000 N 
ATOM      4  C   UNL     1      -8.832  -1.662  21.733  0.00  0.00    +0.000 A 
ATOM      5  C   UNL     1     -10.126  -1.706  22.193  0.00  0.00    +0.000 A 
ATOM      6  C   UNL     1     -11.251  -1.095  21.423  0.00  0.00    +0.000 C 
ATOM      7  C   UNL     1     -10.823  -0.857  19.946  0.00  0.00    +0.000 C 
ATOM      8  C   UNL     1      -9.352  -0.385  19.803  0.00  0.00    +0.000 C 
ATOM      9  O   UNL     1      -8.976   0.377  18.912  0.00  0.00    +0.000 OA
ATOM     10  N   UNL     1      -8.414  -1.015  20.598  0.00  0.00    +0.000 N 
ATOM     11  H   UNL     1     -12.106  -1.784  21.450  0.00  0.00    +0.000 HD
ATOM     12  H   UNL     1     -11.469  -0.095  19.489  0.00  0.00    +0.000 HD
ATOM     13  H   UNL     1      -7.438  -0.817  20.418  0.00  0.00    +0.000 HD
ENDROOT
BRANCH   6  14
ATOM     14  C   UNL     1     -11.629   0.208  22.116  0.00  0.00    +0.000 A 
ATOM     15  C   UNL     1     -10.741   0.911  22.939  0.00  0.00    +0.000 A 
ATOM     16  C   UNL     1     -11.063   2.173  23.445  0.00  0.00    +0.000 A 
ATOM     17  C   UNL     1     -12.292   2.787  23.165  0.00  0.00    +0.000 A 
ATOM     18  C   UNL     1     -13.195   2.065  22.364  0.00  0.00    +0.000 A 
ATOM     19  C   UNL     1     -12.867   0.804  21.841  0.00  0.00    +0.000 A 
ATOM     20  H   UNL     1      -9.764   0.507  23.191  0.00  0.00    +0.000 HD
ATOM     21  H   UNL     1     -10.307   2.665  24.050  0.00  0.00    +0.000 HD
ATOM     22  H   UNL     1     -14.164   2.487  22.107  0.00  0.00    +0.000 HD
ATOM     23  H   UNL     1     -13.587   0.309  21.193  0.00  0.00    +0.000 HD
BRANCH  17  24
ATOM     24  C   UNL     1     -12.646   4.188  23.688  0.00  0.00    +0.000 C 
BRANCH  24  25
ATOM     25  C   UNL     1     -13.619   4.961  22.767  0.00  0.00    +0.000 C 
ATOM     26  H   UNL     1     -14.604   4.478  22.727  0.00  0.00    +0.000 HD
ATOM     27  H   UNL     1     -13.233   5.030  21.743  0.00  0.00    +0.000 HD
ATOM     28  H   UNL     1     -13.777   5.984  23.123  0.00  0.00    +0.000 HD
ENDBRANCH  24  25
BRANCH  24  29
ATOM     29  C   UNL     1     -13.321   4.078  25.073  0.00  0.00    +0.000 C 
ATOM     30  H   UNL     1     -12.578   4.092  25.879  0.00  0.00    +0.000 HD
ATOM     31  H   UNL     1     -13.890   3.145  25.160  0.00  0.00    +0.000 HD
ATOM     32  H   UNL     1     -14.023   4.900  25.258  0.00  0.00    +0.000 HD
ENDBRANCH  24  29
BRANCH  24  33
ATOM     33  C   UNL     1     -11.367   5.041  23.816  0.00  0.00    +0.000 C 
ATOM     34  H   UNL     1     -11.544   5.924  24.442  0.00  0.00    +0.000 HD
ATOM     35  H   UNL     1     -11.003   5.392  22.845  0.00  0.00    +0.000 HD
ATOM     36  H   UNL     1     -10.555   4.466  24.275  0.00  0.00    +0.000 HD
ENDBRANCH  24  33
ENDBRANCH  17  24
ENDBRANCH   6  14
BRANCH   1  37
ATOM     37  C   UNL     1     -11.113  -2.666  24.414  0.00  0.00    +0.000 C 
ATOM     38  H   UNL     1     -12.056  -2.194  24.117  0.00  0.00    +0.000 HD
ATOM     39  H   UNL     1     -10.843  -2.289  25.406  0.00  0.00    +0.000 HD
ATOM     40  H   UNL     1     -11.292  -3.745  24.487  0.00  0.00    +0.000 HD
ENDBRANCH   1  37
BRANCH   3  41
ATOM     41  C   UNL     1      -6.652  -2.608  22.552  0.00  0.00    +0.000 C 
ATOM     42  H   UNL     1      -6.346  -2.643  21.504  0.00  0.00    +0.000 HD
ATOM     43  H   UNL     1      -6.459  -3.569  23.031  0.00  0.00    +0.000 HD
ATOM     44  H   UNL     1      -6.115  -1.807  23.069  0.00  0.00    +0.000 HD
ENDBRANCH   3  41
BRANCH   7  45
ATOM     45  N   UNL     1     -10.919  -2.083  19.135  0.00  0.00    +0.000 N 
ATOM     46  C   UNL     1     -11.313  -2.052  17.819  0.00  0.00    +0.000 C 
ATOM     47  O   UNL     1     -11.607  -1.014  17.237  0.00  0.00    +0.000 OA
ATOM     48  H   UNL     1     -10.597  -2.948  19.550  0.00  0.00    +0.000 HD
BRANCH  46  49
ATOM     49  C   UNL     1     -11.366  -3.361  17.116  0.00  0.00    +0.000 A 
ATOM     50  C   UNL     1     -11.597  -3.454  15.737  0.00  0.00    +0.000 A 
ATOM     51  C   UNL     1     -11.577  -4.702  15.110  0.00  0.00    +0.000 A 
ATOM     52  C   UNL     1     -11.324  -5.855  15.853  0.00  0.00    +0.000 A 
ATOM     53  C   UNL     1     -11.100  -5.766  17.228  0.00  0.00    +0.000 A 
ATOM     54  C   UNL     1     -11.119  -4.521  17.858  0.00  0.00    +0.000 A 
ATOM     55  H   UNL     1     -11.756  -2.568  15.130  0.00  0.00    +0.000 HD
ATOM     56  H   UNL     1     -11.737  -4.775  14.037  0.00  0.00    +0.000 HD
ATOM     57  H   UNL     1     -11.291  -6.824  15.361  0.00  0.00    +0.000 HD
ATOM     58  H   UNL     1     -10.898  -6.664  17.806  0.00  0.00    +0.000 HD
ATOM     59  H   UNL     1     -10.934  -4.456  18.928  0.00  0.00    +0.000 HD
ENDBRANCH  46  49
ENDBRANCH   7  45
TORSDOF 9
ENDMDL
MODEL 4
REMARK VINA RESULT:    -7.373      2.789      5.397
REMARK INTER + INTRA:         -10.734
REMARK INTER:                  -9.674
REMARK INTRA:                  -1.060
REMARK UNBOUND:                -0.559
REMARK  Name = 
REMARK  9 active torsions:
REMARK  status: ('A' for Active; 'I' for Inactive)
REMARK    1  A    between atoms: C_1  and  C_2
REMARK    2  A    between atoms: N_4  and  C_5
REMARK    3  A    between atoms: C_8  and  C_9
REMARK    4  A    between atoms: C_12  and  C_13
REMARK    5  A    between atoms: C_13  and  C_14
REMARK    6  A    between atoms: C_13  and  C_15
REMARK    7  A    between atoms: C_13  and  C_16
REMARK    8  A    between atoms: C_19  and  N_20
REMARK    9  A    between atoms: C_21  and  C_23
REMARK                            x       y       z     vdW  Elec       q    Type
REMARK                         _______ _______ _______ _____ _____    ______ ____
ROOT
ATOM      1  C   UNL     1      -6.906  -5.752  18.600  0.00  0.00    +0.000 A 
ATOM      2  N   UNL     1      -6.915  -5.101  19.775  0.00  0.00    +0.000 NA
ATOM      3  N   UNL     1      -8.201  -4.735  19.945  0.00  0.00    +0.000 N 
ATOM      4  C   UNL     1      -8.996  -5.121  18.909  0.00  0.00    +0.000 A 
ATOM      5  C   UNL     1      -8.188  -5.755  17.996  0.00  0.00    +0.000 A 
ATOM      6  C   UNL     1      -8.727  -6.282  16.706  0.00  0.00    +0.000 C 
ATOM      7  C   UNL     1     -10.106  -5.631  16.395  0.00  0.00    +0.000 C 
ATOM      8  C   UNL     1     -10.987  -5.430  17.656  0.00  0.00    +0.000 C 
ATOM      9  O   UNL     1     -12.216  -5.497  17.633  0.00  0.00    +0.000 OA
ATOM     10  N   UNL     1     -10.354  -4.966  18.794  0.00  0.00    +0.000 N 
ATOM     11  H   UNL     1      -8.017  -6.036  15.905  0.00  0.00    +0.000 HD
ATOM     12  H   UNL     1     -10.664  -6.259  15.688  0.00  0.00    +0.000 HD
ATOM     13  H   UNL     1     -10.935  -4.700  19.577  0.00  0.00    +0.000 HD
ENDROOT
BRANCH   6  14
ATOM     14  C   UNL     1      -8.838  -7.796  16.837  0.00  0.00    +0.000 A 
ATOM     15  C   UNL     1      -8.908  -8.646  15.726  0.00  0.00    +0.000 A 
ATOM     16  C   UNL     1      -8.864 -10.035  15.871  0.00  0.00    +0.000 A 
ATOM     17  C   UNL     1      -8.763 -10.641  17.131  0.00  0.00    +0.000 A 
ATOM     18  C   UNL     1      -8.725  -9.786  18.247  0.00  0.00    +0.000 A 
ATOM     19  C   UNL     1      -8.752  -8.390  18.103  0.00  0.00    +0.000 A 
ATOM     20  H   UNL     1      -8.975  -8.251  14.716  0.00  0.00    +0.000 HD
ATOM     21  H   UNL     1      -8.893 -10.624  14.959  0.00  0.00    +0.000 HD
ATOM     22  H   UNL     1      -8.644 -10.193  19.252  0.00  0.00    +0.000 HD
ATOM     23  H   UNL     1      -8.678  -7.775  18.998  0.00  0.00    +0.000 HD
BRANCH  17  24
ATOM     24  C   UNL     1      -8.681 -12.167  17.302  0.00  0.00    +0.000 C 
BRANCH  24  25
ATOM     25  C   UNL     1     -10.060 -12.838  17.508  0.00  0.00    +0.000 C 
ATOM     26  H   UNL     1     -10.340 -13.455  16.645  0.00  0.00    +0.000 HD
ATOM     27  H   UNL     1     -10.850 -12.093  17.664  0.00  0.00    +0.000 HD
ATOM     28  H   UNL     1     -10.056 -13.493  18.386  0.00  0.00    +0.000 HD
ENDBRANCH  24  25
BRANCH  24  29
ATOM     29  C   UNL     1      -8.049 -12.805  16.045  0.00  0.00    +0.000 C 
ATOM     30  H   UNL     1      -8.079 -12.115  15.193  0.00  0.00    +0.000 HD
ATOM     31  H   UNL     1      -8.584 -13.716  15.755  0.00  0.00    +0.000 HD
ATOM     32  H   UNL     1      -7.001 -13.085  16.205  0.00  0.00    +0.000 HD
ENDBRANCH  24  29
BRANCH  24  33
ATOM     33  C   UNL     1      -7.818 -12.513  18.533  0.00  0.00    +0.000 C 
ATOM     34  H   UNL     1      -7.481 -11.605  19.045  0.00  0.00    +0.000 HD
ATOM     35  H   UNL     1      -6.928 -13.093  18.266  0.00  0.00    +0.000 HD
ATOM     36  H   UNL     1      -8.386 -13.111  19.255  0.00  0.00    +0.000 HD
ENDBRANCH  24  33
ENDBRANCH  17  24
ENDBRANCH   6  14
BRANCH   1  37
ATOM     37  C   UNL     1      -5.649  -6.368  18.104  0.00  0.00    +0.000 C 
ATOM     38  H   UNL     1      -5.723  -7.461  18.078  0.00  0.00    +0.000 HD
ATOM     39  H   UNL     1      -4.804  -6.101  18.745  0.00  0.00    +0.000 HD
ATOM     40  H   UNL     1      -5.437  -6.027  17.085  0.00  0.00    +0.000 HD
ENDBRANCH   1  37
BRANCH   3  41
ATOM     41  C   UNL     1      -8.587  -3.978  21.108  0.00  0.00    +0.000 C 
ATOM     42  H   UNL     1      -7.792  -4.019  21.856  0.00  0.00    +0.000 HD
ATOM     43  H   UNL     1      -9.504  -4.410  21.512  0.00  0.00    +0.000 HD
ATOM     44  H   UNL     1      -8.754  -2.941  20.801  0.00  0.00    +0.000 HD
ENDBRANCH   3  41
BRANCH   7  45
ATOM     45  N   UNL     1      -9.965  -4.289  15.802  0.00  0.00    +0.000 N 
ATOM     46  C   UNL     1     -10.821  -3.835  14.829  0.00  0.00    +0.000 C 
ATOM     47  O   UNL     1     -11.751  -4.506  14.393  0.00  0.00    +0.000 OA
ATOM     48  H   UNL     1      -9.270  -3.670  16.198  0.00  0.00    +0.000 HD
BRANCH  46  49
ATOM     49  C   UNL     1     -10.568  -2.463  14.316  0.00  0.00    +0.000 A 
ATOM     50  C   UNL     1     -11.460  -1.407  14.547  0.00  0.00    +0.000 A 
ATOM     51  C   UNL     1     -11.148  -0.121  14.099  0.00  0.00    +0.000 A 
ATOM     52  C   UNL     1      -9.950   0.115  13.425  0.00  0.00    +0.000 A 
ATOM     53  C   UNL     1      -9.062  -0.935  13.188  0.00  0.00    +0.000 A 
ATOM     54  C   UNL     1      -9.369  -2.222  13.634  0.00  0.00    +0.000 A 
ATOM     55  H   UNL     1     -12.380  -1.556  15.104  0.00  0.00    +0.000 HD
ATOM     56  H   UNL     1     -11.831   0.704  14.293  0.00  0.00    +0.000 HD
ATOM     57  H   UNL     1      -9.701   1.120  13.093  0.00  0.00    +0.000 HD
ATOM     58  H   UNL     1      -8.126  -0.751  12.667  0.00  0.00    +0.000 HD
ATOM     59  H   UNL     1      -8.670  -3.035  13.456  0.00  0.00    +0.000 HD
ENDBRANCH  46  49
ENDBRANCH   7  45
TORSDOF 9
ENDMDL
MODEL 5
REMARK VINA RESULT:    -7.106      3.879      6.782
REMARK INTER + INTRA:         -10.366
REMARK INTER:                  -9.617
REMARK INTRA:                  -0.749
REMARK UNBOUND:                -0.559
REMARK  Name = 
REMARK  9 active torsions:
REMARK  status: ('A' for Active; 'I' for Inactive)
REMARK    1  A    between atoms: C_1  and  C_2
REMARK    2  A    between atoms: N_4  and  C_5
REMARK    3  A    between atoms: C_8  and  C_9
REMARK    4  A    between atoms: C_12  and  C_13
REMARK    5  A    between atoms: C_13  and  C_14
REMARK    6  A    between atoms: C_13  and  C_15
REMARK    7  A    between atoms: C_13  and  C_16
REMARK    8  A    between atoms: C_19  and  N_20
REMARK    9  A    between atoms: C_21  and  C_23
REMARK                            x       y       z     vdW  Elec       q    Type
REMARK                         _______ _______ _______ _____ _____    ______ ____
ROOT
ATOM      1  C   UNL     1      -7.159  -3.116  22.363  0.00  0.00    +0.000 A 
ATOM      2  N   UNL     1      -7.344  -3.222  23.690  0.00  0.00    +0.000 NA
ATOM      3  N   UNL     1      -8.640  -2.905  23.874  0.00  0.00    +0.000 N 
ATOM      4  C   UNL     1      -9.272  -2.589  22.709  0.00  0.00    +0.000 A 
ATOM      5  C   UNL     1      -8.337  -2.680  21.706  0.00  0.00    +0.000 A 
ATOM      6  C   UNL     1      -8.677  -2.363  20.287  0.00  0.00    +0.000 C 
ATOM      7  C   UNL     1      -9.994  -1.536  20.223  0.00  0.00    +0.000 C 
ATOM      8  C   UNL     1     -11.054  -1.991  21.261  0.00  0.00    +0.000 C 
ATOM      9  O   UNL     1     -12.266  -1.931  21.053  0.00  0.00    +0.000 OA
ATOM     10  N   UNL     1     -10.598  -2.283  22.533  0.00  0.00    +0.000 N 
ATOM     11  H   UNL     1      -7.856  -1.776  19.854  0.00  0.00    +0.000 HD
ATOM     12  H   UNL     1     -10.441  -1.622  19.224  0.00  0.00    +0.000 HD
ATOM     13  H   UNL     1     -11.289  -2.446  23.252  0.00  0.00    +0.000 HD
ENDROOT
BRANCH   6  14
ATOM     14  C   UNL     1      -8.806  -3.682  19.538  0.00  0.00    +0.000 A 
ATOM     15  C   UNL     1      -8.106  -4.836  19.913  0.00  0.00    +0.000 A 
ATOM     16  C   UNL     1      -8.351  -6.067  19.300  0.00  0.00    +0.000 A 
ATOM     17  C   UNL     1      -9.295  -6.203  18.272  0.00  0.00    +0.000 A 
ATOM     18  C   UNL     1      -9.974  -5.037  17.875  0.00  0.00    +0.000 A 
ATOM     19  C   UNL     1      -9.742  -3.802  18.501  0.00  0.00    +0.000 A 
ATOM     20  H   UNL     1      -7.367  -4.813  20.710  0.00  0.00    +0.000 HD
ATOM     21  H   UNL     1      -7.788  -6.919  19.669  0.00  0.00    +0.000 HD
ATOM     22  H   UNL     1     -10.722  -5.075  17.086  0.00  0.00    +0.000 HD
ATOM     23  H   UNL     1     -10.326  -2.941  18.182  0.00  0.00    +0.000 HD
BRANCH  17  24
ATOM     24  C   UNL     1      -9.597  -7.557  17.611  0.00  0.00    +0.000 C 
BRANCH  24  25
ATOM     25  C   UNL     1      -9.153  -8.770  18.462  0.00  0.00    +0.000 C 
ATOM     26  H   UNL     1      -9.928  -9.062  19.182  0.00  0.00    +0.000 HD
ATOM     27  H   UNL     1      -8.234  -8.554  19.020  0.00  0.00    +0.000 HD
ATOM     28  H   UNL     1      -8.951  -9.644  17.834  0.00  0.00    +0.000 HD
ENDBRANCH  24  25
BRANCH  24  29
ATOM     29  C   UNL     1     -11.117  -7.700  17.375  0.00  0.00    +0.000 C 
ATOM     30  H   UNL     1     -11.469  -8.700  17.654  0.00  0.00    +0.000 HD
ATOM     31  H   UNL     1     -11.368  -7.542  16.320  0.00  0.00    +0.000 HD
ATOM     32  H   UNL     1     -11.697  -6.974  17.955  0.00  0.00    +0.000 HD
ENDBRANCH  24  29
BRANCH  24  33
ATOM     33  C   UNL     1      -8.864  -7.658  16.258  0.00  0.00    +0.000 C 
ATOM     34  H   UNL     1      -8.272  -8.579  16.199  0.00  0.00    +0.000 HD
ATOM     35  H   UNL     1      -8.185  -6.816  16.090  0.00  0.00    +0.000 HD
ATOM     36  H   UNL     1      -9.576  -7.667  15.425  0.00  0.00    +0.000 HD
ENDBRANCH  24  33
ENDBRANCH  17  24
ENDBRANCH   6  14
BRANCH   1  37
ATOM     37  C   UNL     1      -5.843  -3.459  21.769  0.00  0.00    +0.000 C 
ATOM     38  H   UNL     1      -5.802  -3.192  20.707  0.00  0.00    +0.000 HD
ATOM     39  H   UNL     1      -5.642  -4.532  21.855  0.00  0.00    +0.000 HD
ATOM     40  H   UNL     1      -5.043  -2.912  22.279  0.00  0.00    +0.000 HD
ENDBRANCH   1  37
BRANCH   3  41
ATOM     41  C   UNL     1      -9.196  -2.884  25.203  0.00  0.00    +0.000 C 
ATOM     42  H   UNL     1      -8.393  -2.783  25.937  0.00  0.00    +0.000 HD
ATOM     43  H   UNL     1      -9.736  -3.818  25.365  0.00  0.00    +0.000 HD
ATOM     44  H   UNL     1      -9.876  -2.030  25.276  0.00  0.00    +0.000 HD
ENDBRANCH   3  41
BRANCH   7  45
ATOM     45  N   UNL     1      -9.767  -0.107  20.500  0.00  0.00    +0.000 N 
ATOM     46  C   UNL     1     -10.491   0.877  19.872  0.00  0.00    +0.000 C 
ATOM     47  O   UNL     1     -11.367   0.635  19.048  0.00  0.00    +0.000 OA
ATOM     48  H   UNL     1      -9.119   0.132  21.240  0.00  0.00    +0.000 HD
BRANCH  46  49
ATOM     49  C   UNL     1     -10.162   2.278  20.243  0.00  0.00    +0.000 A 
ATOM     50  C   UNL     1     -10.328   2.759  21.549  0.00  0.00    +0.000 A 
ATOM     51  C   UNL     1      -9.945   4.065  21.864  0.00  0.00    +0.000 A 
ATOM     52  C   UNL     1      -9.396   4.891  20.883  0.00  0.00    +0.000 A 
ATOM     53  C   UNL     1      -9.234   4.416  19.581  0.00  0.00    +0.000 A 
ATOM     54  C   UNL     1      -9.615   3.112  19.261  0.00  0.00    +0.000 A 
ATOM     55  H   UNL     1     -10.716   2.125  22.340  0.00  0.00    +0.000 HD
ATOM     56  H   UNL     1     -10.056   4.435  22.881  0.00  0.00    +0.000 HD
ATOM     57  H   UNL     1      -9.082   5.900  21.135  0.00  0.00    +0.000 HD
ATOM     58  H   UNL     1      -8.801   5.058  18.817  0.00  0.00    +0.000 HD
ATOM     59  H   UNL     1      -9.478   2.744  18.246  0.00  0.00    +0.000 HD
ENDBRANCH  46  49
ENDBRANCH   7  45
TORSDOF 9
ENDMDL
MODEL 6
REMARK VINA RESULT:    -7.082      2.786      8.319
REMARK INTER + INTRA:         -10.332
REMARK INTER:                  -9.823
REMARK INTRA:                  -0.509
REMARK UNBOUND:                -0.559
REMARK  Name = 
REMARK  9 active torsions:
REMARK  status: ('A' for Active; 'I' for Inactive)
REMARK    1  A    between atoms: C_1  and  C_2
REMARK    2  A    between atoms: N_4  and  C_5
REMARK    3  A    between atoms: C_8  and  C_9
REMARK    4  A    between atoms: C_12  and  C_13
REMARK    5  A    between atoms: C_13  and  C_14
REMARK    6  A    between atoms: C_13  and  C_15
REMARK    7  A    between atoms: C_13  and  C_16
REMARK    8  A    between atoms: C_19  and  N_20
REMARK    9  A    between atoms: C_21  and  C_23
REMARK                            x       y       z     vdW  Elec       q    Type
REMARK                         _______ _______ _______ _____ _____    ______ ____
ROOT
ATOM      1  C   UNL     1      -7.729  -5.041  20.517  0.00  0.00    +0.000 A 
ATOM      2  N   UNL     1      -6.388  -4.975  20.573  0.00  0.00    +0.000 NA
ATOM      3  N   UNL     1      -5.980  -5.427  19.372  0.00  0.00    +0.000 N 
ATOM      4  C   UNL     1      -7.019  -5.789  18.568  0.00  0.00    +0.000 A 
ATOM      5  C   UNL     1      -8.172  -5.587  19.286  0.00  0.00    +0.000 A 
ATOM      6  C   UNL     1      -9.515  -5.916  18.720  0.00  0.00    +0.000 C 
ATOM      7  C   UNL     1      -9.363  -6.874  17.503  0.00  0.00    +0.000 C 
ATOM      8  C   UNL     1      -8.134  -6.546  16.616  0.00  0.00    +0.000 C 
ATOM      9  O   UNL     1      -8.117  -6.727  15.398  0.00  0.00    +0.000 OA
ATOM     10  N   UNL     1      -6.958  -6.227  17.269  0.00  0.00    +0.000 N 
ATOM     11  H   UNL     1     -10.111  -6.408  19.501  0.00  0.00    +0.000 HD
ATOM     12  H   UNL     1     -10.260  -6.819  16.871  0.00  0.00    +0.000 HD
ATOM     13  H   UNL     1      -6.118  -6.148  16.712  0.00  0.00    +0.000 HD
ENDROOT
BRANCH   6  14
ATOM     14  C   UNL     1     -10.182  -4.606  18.324  0.00  0.00    +0.000 A 
ATOM     15  C   UNL     1      -9.654  -3.355  18.669  0.00  0.00    +0.000 A 
ATOM     16  C   UNL     1     -10.206  -2.171  18.172  0.00  0.00    +0.000 A 
ATOM     17  C   UNL     1     -11.319  -2.179  17.320  0.00  0.00    +0.000 A 
ATOM     18  C   UNL     1     -11.867  -3.434  17.001  0.00  0.00    +0.000 A 
ATOM     19  C   UNL     1     -11.304  -4.626  17.485  0.00  0.00    +0.000 A 
ATOM     20  H   UNL     1      -8.785  -3.267  19.316  0.00  0.00    +0.000 HD
ATOM     21  H   UNL     1      -9.720  -1.245  18.463  0.00  0.00    +0.000 HD
ATOM     22  H   UNL     1     -12.729  -3.509  16.341  0.00  0.00    +0.000 HD
ATOM     23  H   UNL     1     -11.743  -5.571  17.172  0.00  0.00    +0.000 HD
BRANCH  17  24
ATOM     24  C   UNL     1     -11.916  -0.886  16.741  0.00  0.00    +0.000 C 
BRANCH  24  25
ATOM     25  C   UNL     1     -13.343  -1.069  16.170  0.00  0.00    +0.000 C 
ATOM     26  H   UNL     1     -13.346  -1.027  15.074  0.00  0.00    +0.000 HD
ATOM     27  H   UNL     1     -14.026  -0.296  16.542  0.00  0.00    +0.000 HD
ATOM     28  H   UNL     1     -13.765  -2.038  16.456  0.00  0.00    +0.000 HD
ENDBRANCH  24  25
BRANCH  24  29
ATOM     29  C   UNL     1     -12.002   0.194  17.842  0.00  0.00    +0.000 C 
ATOM     30  H   UNL     1     -13.044   0.460  18.055  0.00  0.00    +0.000 HD
ATOM     31  H   UNL     1     -11.481   1.109  17.537  0.00  0.00    +0.000 HD
ATOM     32  H   UNL     1     -11.548  -0.136  18.783  0.00  0.00    +0.000 HD
ENDBRANCH  24  29
BRANCH  24  33
ATOM     33  C   UNL     1     -11.030  -0.366  15.591  0.00  0.00    +0.000 C 
ATOM     34  H   UNL     1      -9.997  -0.217  15.926  0.00  0.00    +0.000 HD
ATOM     35  H   UNL     1     -11.388   0.588  15.189  0.00  0.00    +0.000 HD
ATOM     36  H   UNL     1     -11.009  -1.078  14.758  0.00  0.00    +0.000 HD
ENDBRANCH  24  33
ENDBRANCH  17  24
ENDBRANCH   6  14
BRANCH   1  37
ATOM     37  C   UNL     1      -8.543  -4.555  21.659  0.00  0.00    +0.000 C 
ATOM     38  H   UNL     1      -8.442  -5.212  22.530  0.00  0.00    +0.000 HD
ATOM     39  H   UNL     1      -9.603  -4.509  21.391  0.00  0.00    +0.000 HD
ATOM     40  H   UNL     1      -8.215  -3.554  21.960  0.00  0.00    +0.000 HD
ENDBRANCH   1  37
BRANCH   3  41
ATOM     41  C   UNL     1      -4.572  -5.525  19.078  0.00  0.00    +0.000 C 
ATOM     42  H   UNL     1      -4.250  -6.566  19.160  0.00  0.00    +0.000 HD
ATOM     43  H   UNL     1      -4.027  -4.907  19.794  0.00  0.00    +0.000 HD
ATOM     44  H   UNL     1      -4.409  -5.166  18.058  0.00  0.00    +0.000 HD
ENDBRANCH   3  41
BRANCH   7  45
ATOM     45  N   UNL     1      -9.181  -8.275  17.918  0.00  0.00    +0.000 N 
ATOM     46  C   UNL     1      -9.368  -9.319  17.044  0.00  0.00    +0.000 C 
ATOM     47  O   UNL     1      -9.694  -9.157  15.873  0.00  0.00    +0.000 OA
ATOM     48  H   UNL     1      -8.823  -8.448  18.848  0.00  0.00    +0.000 HD
BRANCH  46  49
ATOM     49  C   UNL     1      -9.152 -10.684  17.592  0.00  0.00    +0.000 A 
ATOM     50  C   UNL     1      -9.532 -11.835  16.889  0.00  0.00    +0.000 A 
ATOM     51  C   UNL     1      -9.251 -13.098  17.416  0.00  0.00    +0.000 A 
ATOM     52  C   UNL     1      -8.591 -13.216  18.640  0.00  0.00    +0.000 A 
ATOM     53  C   UNL     1      -8.217 -12.071  19.345  0.00  0.00    +0.000 A 
ATOM     54  C   UNL     1      -8.495 -10.807  18.822  0.00  0.00    +0.000 A 
ATOM     55  H   UNL     1     -10.010 -11.772  15.916  0.00  0.00    +0.000 HD
ATOM     56  H   UNL     1      -9.528 -13.993  16.864  0.00  0.00    +0.000 HD
ATOM     57  H   UNL     1      -8.358 -14.199  19.040  0.00  0.00    +0.000 HD
ATOM     58  H   UNL     1      -7.699 -12.162  20.296  0.00  0.00    +0.000 HD
ATOM     59  H   UNL     1      -8.193  -9.918  19.371  0.00  0.00    +0.000 HD
ENDBRANCH  46  49
ENDBRANCH   7  45
TORSDOF 9
ENDMDL
MODEL 7
REMARK VINA RESULT:    -6.849      5.253     10.781
REMARK INTER + INTRA:         -10.012
REMARK INTER:                  -8.915
REMARK INTRA:                  -1.097
REMARK UNBOUND:                -0.559
REMARK  Name = 
REMARK  9 active torsions:
REMARK  status: ('A' for Active; 'I' for Inactive)
REMARK    1  A    between atoms: C_1  and  C_2
REMARK    2  A    between atoms: N_4  and  C_5
REMARK    3  A    between atoms: C_8  and  C_9
REMARK    4  A    between atoms: C_12  and  C_13
REMARK    5  A    between atoms: C_13  and  C_14
REMARK    6  A    between atoms: C_13  and  C_15
REMARK    7  A    between atoms: C_13  and  C_16
REMARK    8  A    between atoms: C_19  and  N_20
REMARK    9  A    between atoms: C_21  and  C_23
REMARK                            x       y       z     vdW  Elec       q    Type
REMARK                         _______ _______ _______ _____ _____    ______ ____
ROOT
ATOM      1  C   UNL     1     -10.026   1.554  18.851  0.00  0.00    +0.000 A 
ATOM      2  N   UNL     1     -10.654   1.211  17.713  0.00  0.00    +0.000 NA
ATOM      3  N   UNL     1     -11.251   0.038  18.001  0.00  0.00    +0.000 N 
ATOM      4  C   UNL     1     -11.007  -0.375  19.276  0.00  0.00    +0.000 A 
ATOM      5  C   UNL     1     -10.187   0.565  19.853  0.00  0.00    +0.000 A 
ATOM      6  C   UNL     1      -9.684   0.412  21.251  0.00  0.00    +0.000 C 
ATOM      7  C   UNL     1      -9.838  -1.065  21.718  0.00  0.00    +0.000 C 
ATOM      8  C   UNL     1     -11.144  -1.733  21.216  0.00  0.00    +0.000 C 
ATOM      9  O   UNL     1     -11.750  -2.590  21.860  0.00  0.00    +0.000 OA
ATOM     10  N   UNL     1     -11.511  -1.484  19.907  0.00  0.00    +0.000 N 
ATOM     11  H   UNL     1      -8.623   0.694  21.273  0.00  0.00    +0.000 HD
ATOM     12  H   UNL     1      -9.834  -1.111  22.815  0.00  0.00    +0.000 HD
ATOM     13  H   UNL     1     -12.279  -2.019  19.525  0.00  0.00    +0.000 HD
ENDROOT
BRANCH   6  14
ATOM     14  C   UNL     1     -10.480   1.365  22.133  0.00  0.00    +0.000 A 
ATOM     15  C   UNL     1      -9.950   1.939  23.296  0.00  0.00    +0.000 A 
ATOM     16  C   UNL     1     -10.648   2.918  24.006  0.00  0.00    +0.000 A 
ATOM     17  C   UNL     1     -11.914   3.362  23.599  0.00  0.00    +0.000 A 
ATOM     18  C   UNL     1     -12.458   2.762  22.449  0.00  0.00    +0.000 A 
ATOM     19  C   UNL     1     -11.752   1.789  21.724  0.00  0.00    +0.000 A 
ATOM     20  H   UNL     1      -8.969   1.655  23.669  0.00  0.00    +0.000 HD
ATOM     21  H   UNL     1     -10.155   3.334  24.880  0.00  0.00    +0.000 HD
ATOM     22  H   UNL     1     -13.435   3.064  22.078  0.00  0.00    +0.000 HD
ATOM     23  H   UNL     1     -12.202   1.389  20.818  0.00  0.00    +0.000 HD
BRANCH  17  24
ATOM     24  C   UNL     1     -12.678   4.462  24.353  0.00  0.00    +0.000 C 
BRANCH  24  25
ATOM     25  C   UNL     1     -11.773   5.620  24.835  0.00  0.00    +0.000 C 
ATOM     26  H   UNL     1     -10.710   5.379  24.710  0.00  0.00    +0.000 HD
ATOM     27  H   UNL     1     -11.947   5.852  25.893  0.00  0.00    +0.000 HD
ATOM     28  H   UNL     1     -11.964   6.537  24.267  0.00  0.00    +0.000 HD
ENDBRANCH  24  25
BRANCH  24  29
ATOM     29  C   UNL     1     -13.755   5.079  23.434  0.00  0.00    +0.000 C 
ATOM     30  H   UNL     1     -13.440   6.060  23.057  0.00  0.00    +0.000 HD
ATOM     31  H   UNL     1     -14.700   5.218  23.972  0.00  0.00    +0.000 HD
ATOM     32  H   UNL     1     -13.971   4.447  22.565  0.00  0.00    +0.000 HD
ENDBRANCH  24  29
BRANCH  24  33
ATOM     33  C   UNL     1     -13.361   3.868  25.602  0.00  0.00    +0.000 C 
ATOM     34  H   UNL     1     -14.236   3.268  25.325  0.00  0.00    +0.000 HD
ATOM     35  H   UNL     1     -13.697   4.643  26.299  0.00  0.00    +0.000 HD
ATOM     36  H   UNL     1     -12.673   3.217  26.153  0.00  0.00    +0.000 HD
ENDBRANCH  24  33
ENDBRANCH  17  24
ENDBRANCH   6  14
BRANCH   1  37
ATOM     37  C   UNL     1      -9.300   2.846  18.936  0.00  0.00    +0.000 C 
ATOM     38  H   UNL     1      -8.505   2.908  18.184  0.00  0.00    +0.000 HD
ATOM     39  H   UNL     1      -8.843   2.973  19.922  0.00  0.00    +0.000 HD
ATOM     40  H   UNL     1      -9.988   3.680  18.759  0.00  0.00    +0.000 HD
ENDBRANCH   1  37
BRANCH   3  41
ATOM     41  C   UNL     1     -12.007  -0.653  16.987  0.00  0.00    +0.000 C 
ATOM     42  H   UNL     1     -11.380  -1.412  16.514  0.00  0.00    +0.000 HD
ATOM     43  H   UNL     1     -12.338   0.076  16.246  0.00  0.00    +0.000 HD
ATOM     44  H   UNL     1     -12.867  -1.129  17.467  0.00  0.00    +0.000 HD
ENDBRANCH   3  41
BRANCH   7  45
ATOM     45  N   UNL     1      -8.747  -1.921  21.221  0.00  0.00    +0.000 N 
ATOM     46  C   UNL     1      -8.238  -2.953  21.970  0.00  0.00    +0.000 C 
ATOM     47  O   UNL     1      -8.652  -3.231  23.090  0.00  0.00    +0.000 OA
ATOM     48  H   UNL     1      -8.440  -1.785  20.266  0.00  0.00    +0.000 HD
BRANCH  46  49
ATOM     49  C   UNL     1      -7.138  -3.739  21.349  0.00  0.00    +0.000 A 
ATOM     50  C   UNL     1      -7.387  -4.759  20.421  0.00  0.00    +0.000 A 
ATOM     51  C   UNL     1      -6.319  -5.427  19.818  0.00  0.00    +0.000 A 
ATOM     52  C   UNL     1      -5.006  -5.080  20.135  0.00  0.00    +0.000 A 
ATOM     53  C   UNL     1      -4.755  -4.069  21.063  0.00  0.00    +0.000 A 
ATOM     54  C   UNL     1      -5.819  -3.398  21.669  0.00  0.00    +0.000 A 
ATOM     55  H   UNL     1      -8.399  -5.021  20.127  0.00  0.00    +0.000 HD
ATOM     56  H   UNL     1      -6.509  -6.207  19.083  0.00  0.00    +0.000 HD
ATOM     57  H   UNL     1      -4.176  -5.589  19.651  0.00  0.00    +0.000 HD
ATOM     58  H   UNL     1      -3.732  -3.795  21.308  0.00  0.00    +0.000 HD
ATOM     59  H   UNL     1      -5.618  -2.604  22.384  0.00  0.00    +0.000 HD
ENDBRANCH  46  49
ENDBRANCH   7  45
TORSDOF 9
ENDMDL
MODEL 8
REMARK VINA RESULT:    -6.781      4.709      6.917
REMARK INTER + INTRA:          -9.917
REMARK INTER:                  -8.827
REMARK INTRA:                  -1.090
REMARK UNBOUND:                -0.559
REMARK  Name = 
REMARK  9 active torsions:
REMARK  status: ('A' for Active; 'I' for Inactive)
REMARK    1  A    between atoms: C_1  and  C_2
REMARK    2  A    between atoms: N_4  and  C_5
REMARK    3  A    between atoms: C_8  and  C_9
REMARK    4  A    between atoms: C_12  and  C_13
REMARK    5  A    between atoms: C_13  and  C_14
REMARK    6  A    between atoms: C_13  and  C_15
REMARK    7  A    between atoms: C_13  and  C_16
REMARK    8  A    between atoms: C_19  and  N_20
REMARK    9  A    between atoms: C_21  and  C_23
REMARK                            x       y       z     vdW  Elec       q    Type
REMARK                         _______ _______ _______ _____ _____    ______ ____
ROOT
ATOM      1  C   UNL     1     -10.146  -0.551  15.990  0.00  0.00    +0.000 A 
ATOM      2  N   UNL     1      -9.114   0.225  15.619  0.00  0.00    +0.000 NA
ATOM      3  N   UNL     1      -8.481   0.515  16.771  0.00  0.00    +0.000 N 
ATOM      4  C   UNL     1      -9.089  -0.039  17.857  0.00  0.00    +0.000 A 
ATOM      5  C   UNL     1     -10.196  -0.712  17.398  0.00  0.00    +0.000 A 
ATOM      6  C   UNL     1     -11.127  -1.415  18.330  0.00  0.00    +0.000 C 
ATOM      7  C   UNL     1     -10.919  -0.902  19.785  0.00  0.00    +0.000 C 
ATOM      8  C   UNL     1      -9.432  -0.626  20.130  0.00  0.00    +0.000 C 
ATOM      9  O   UNL     1      -8.964  -0.782  21.258  0.00  0.00    +0.000 OA
ATOM     10  N   UNL     1      -8.672   0.006  19.163  0.00  0.00    +0.000 N 
ATOM     11  H   UNL     1     -12.159  -1.210  18.014  0.00  0.00    +0.000 HD
ATOM     12  H   UNL     1     -11.300  -1.643  20.500  0.00  0.00    +0.000 HD
ATOM     13  H   UNL     1      -7.746   0.315  19.423  0.00  0.00    +0.000 HD
ENDROOT
BRANCH   6  14
ATOM     14  C   UNL     1     -10.850  -2.909  18.217  0.00  0.00    +0.000 A 
ATOM     15  C   UNL     1     -11.651  -3.770  17.456  0.00  0.00    +0.000 A 
ATOM     16  C   UNL     1     -11.294  -5.105  17.253  0.00  0.00    +0.000 A 
ATOM     17  C   UNL     1     -10.129  -5.649  17.812  0.00  0.00    +0.000 A 
ATOM     18  C   UNL     1      -9.343  -4.791  18.602  0.00  0.00    +0.000 A 
ATOM     19  C   UNL     1      -9.690  -3.445  18.794  0.00  0.00    +0.000 A 
ATOM     20  H   UNL     1     -12.564  -3.419  16.981  0.00  0.00    +0.000 HD
ATOM     21  H   UNL     1     -11.953  -5.698  16.626  0.00  0.00    +0.000 HD
ATOM     22  H   UNL     1      -8.424  -5.151  19.061  0.00  0.00    +0.000 HD
ATOM     23  H   UNL     1      -9.024  -2.816  19.380  0.00  0.00    +0.000 HD
BRANCH  17  24
ATOM     24  C   UNL     1      -9.708  -7.107  17.570  0.00  0.00    +0.000 C 
BRANCH  24  25
ATOM     25  C   UNL     1     -10.814  -7.966  16.913  0.00  0.00    +0.000 C 
ATOM     26  H   UNL     1     -11.249  -8.677  17.627  0.00  0.00    +0.000 HD
ATOM     27  H   UNL     1     -10.427  -8.536  16.059  0.00  0.00    +0.000 HD
ATOM     28  H   UNL     1     -11.634  -7.343  16.540  0.00  0.00    +0.000 HD
ENDBRANCH  24  25
BRANCH  24  29
ATOM     29  C   UNL     1      -8.481  -7.152  16.632  0.00  0.00    +0.000 C 
ATOM     30  H   UNL     1      -8.519  -8.026  15.972  0.00  0.00    +0.000 HD
ATOM     31  H   UNL     1      -7.549  -7.210  17.206  0.00  0.00    +0.000 HD
ATOM     32  H   UNL     1      -8.412  -6.262  15.997  0.00  0.00    +0.000 HD
ENDBRANCH  24  29
BRANCH  24  33
ATOM     33  C   UNL     1      -9.345  -7.780  18.909  0.00  0.00    +0.000 C 
ATOM     34  H   UNL     1     -10.007  -8.628  19.116  0.00  0.00    +0.000 HD
ATOM     35  H   UNL     1      -9.418  -7.088  19.755  0.00  0.00    +0.000 HD
ATOM     36  H   UNL     1      -8.316  -8.159  18.893  0.00  0.00    +0.000 HD
ENDBRANCH  24  33
ENDBRANCH  17  24
ENDBRANCH   6  14
BRANCH   1  37
ATOM     37  C   UNL     1     -11.049  -1.127  14.962  0.00  0.00    +0.000 C 
ATOM     38  H   UNL     1     -12.100  -0.921  15.192  0.00  0.00    +0.000 HD
ATOM     39  H   UNL     1     -10.923  -2.213  14.897  0.00  0.00    +0.000 HD
ATOM     40  H   UNL     1     -10.833  -0.691  13.981  0.00  0.00    +0.000 HD
ENDBRANCH   1  37
BRANCH   3  41
ATOM     41  C   UNL     1      -7.319   1.368  16.761  0.00  0.00    +0.000 C 
ATOM     42  H   UNL     1      -6.535   0.916  16.150  0.00  0.00    +0.000 HD
ATOM     43  H   UNL     1      -6.972   1.489  17.788  0.00  0.00    +0.000 HD
ATOM     44  H   UNL     1      -7.609   2.335  16.337  0.00  0.00    +0.000 HD
ENDBRANCH   3  41
BRANCH   7  45
ATOM     45  N   UNL     1     -11.617   0.371  20.030  0.00  0.00    +0.000 N 
ATOM     46  C   UNL     1     -12.223   0.645  21.232  0.00  0.00    +0.000 C 
ATOM     47  O   UNL     1     -12.222  -0.141  22.172  0.00  0.00    +0.000 OA
ATOM     48  H   UNL     1     -11.562   1.084  19.313  0.00  0.00    +0.000 HD
BRANCH  46  49
ATOM     49  C   UNL     1     -12.893   1.968  21.346  0.00  0.00    +0.000 A 
ATOM     50  C   UNL     1     -12.606   2.858  22.390  0.00  0.00    +0.000 A 
ATOM     51  C   UNL     1     -13.215   4.115  22.420  0.00  0.00    +0.000 A 
ATOM     52  C   UNL     1     -14.106   4.487  21.414  0.00  0.00    +0.000 A 
ATOM     53  C   UNL     1     -14.398   3.600  20.376  0.00  0.00    +0.000 A 
ATOM     54  C   UNL     1     -13.792   2.343  20.341  0.00  0.00    +0.000 A 
ATOM     55  H   UNL     1     -11.886   2.609  23.163  0.00  0.00    +0.000 HD
ATOM     56  H   UNL     1     -12.980   4.815  23.219  0.00  0.00    +0.000 HD
ATOM     57  H   UNL     1     -14.565   5.472  21.430  0.00  0.00    +0.000 HD
ATOM     58  H   UNL     1     -15.089   3.891  19.589  0.00  0.00    +0.000 HD
ATOM     59  H   UNL     1     -14.016   1.659  19.525  0.00  0.00    +0.000 HD
ENDBRANCH  46  49
ENDBRANCH   7  45
TORSDOF 9
ENDMDL
MODEL 9
REMARK VINA RESULT:    -6.633      4.510      6.981
REMARK INTER + INTRA:          -9.713
REMARK INTER:                  -8.588
REMARK INTRA:                  -1.125
REMARK UNBOUND:                -0.559
REMARK  Name = 
REMARK  9 active torsions:
REMARK  status: ('A' for Active; 'I' for Inactive)
REMARK    1  A    between atoms: C_1  and  C_2
REMARK    2  A    between atoms: N_4  and  C_5
REMARK    3  A    between atoms: C_8  and  C_9
REMARK    4  A    between atoms: C_12  and  C_13
REMARK    5  A    between atoms: C_13  and  C_14
REMARK    6  A    between atoms: C_13  and  C_15
REMARK    7  A    between atoms: C_13  and  C_16
REMARK    8  A    between atoms: C_19  and  N_20
REMARK    9  A    between atoms: C_21  and  C_23
REMARK                            x       y       z     vdW  Elec       q    Type
REMARK                         _______ _______ _______ _____ _____    ______ ____
ROOT
ATOM      1  C   UNL     1     -10.168  -1.751  22.222  0.00  0.00    +0.000 A 
ATOM      2  N   UNL     1     -11.225  -1.183  22.827  0.00  0.00    +0.000 NA
ATOM      3  N   UNL     1     -11.888  -0.564  21.832  0.00  0.00    +0.000 N 
ATOM      4  C   UNL     1     -11.275  -0.710  20.624  0.00  0.00    +0.000 A 
ATOM      5  C   UNL     1     -10.135  -1.447  20.838  0.00  0.00    +0.000 A 
ATOM      6  C   UNL     1      -9.191  -1.770  19.726  0.00  0.00    +0.000 C 
ATOM      7  C   UNL     1      -9.443  -0.824  18.517  0.00  0.00    +0.000 C 
ATOM      8  C   UNL     1     -10.945  -0.516  18.282  0.00  0.00    +0.000 C 
ATOM      9  O   UNL     1     -11.424  -0.318  17.165  0.00  0.00    +0.000 OA
ATOM     10  N   UNL     1     -11.714  -0.263  19.403  0.00  0.00    +0.000 N 
ATOM     11  H   UNL     1      -8.164  -1.633  20.090  0.00  0.00    +0.000 HD
ATOM     12  H   UNL     1      -9.043  -1.276  17.599  0.00  0.00    +0.000 HD
ATOM     13  H   UNL     1     -12.656   0.073  19.259  0.00  0.00    +0.000 HD
ENDROOT
BRANCH   6  14
ATOM     14  C   UNL     1      -9.405  -3.230  19.350  0.00  0.00    +0.000 A 
ATOM     15  C   UNL     1     -10.496  -3.662  18.586  0.00  0.00    +0.000 A 
ATOM     16  C   UNL     1     -10.592  -4.981  18.135  0.00  0.00    +0.000 A 
ATOM     17  C   UNL     1      -9.611  -5.935  18.437  0.00  0.00    +0.000 A 
ATOM     18  C   UNL     1      -8.532  -5.508  19.232  0.00  0.00    +0.000 A 
ATOM     19  C   UNL     1      -8.425  -4.179  19.673  0.00  0.00    +0.000 A 
ATOM     20  H   UNL     1     -11.291  -2.977  18.300  0.00  0.00    +0.000 HD
ATOM     21  H   UNL     1     -11.454  -5.227  17.522  0.00  0.00    +0.000 HD
ATOM     22  H   UNL     1      -7.735  -6.199  19.499  0.00  0.00    +0.000 HD
ATOM     23  H   UNL     1      -7.548  -3.893  20.250  0.00  0.00    +0.000 HD
BRANCH  17  24
ATOM     24  C   UNL     1      -9.687  -7.381  17.921  0.00  0.00    +0.000 C 
BRANCH  24  25
ATOM     25  C   UNL     1      -9.255  -8.433  18.969  0.00  0.00    +0.000 C 
ATOM     26  H   UNL     1      -9.959  -9.273  19.011  0.00  0.00    +0.000 HD
ATOM     27  H   UNL     1      -9.187  -7.995  19.973  0.00  0.00    +0.000 HD
ATOM     28  H   UNL     1      -8.270  -8.850  18.732  0.00  0.00    +0.000 HD
ENDBRANCH  24  25
BRANCH  24  29
ATOM     29  C   UNL     1     -11.138  -7.718  17.511  0.00  0.00    +0.000 C 
ATOM     30  H   UNL     1     -11.429  -8.713  17.867  0.00  0.00    +0.000 HD
ATOM     31  H   UNL     1     -11.251  -7.708  16.421  0.00  0.00    +0.000 HD
ATOM     32  H   UNL     1     -11.860  -6.999  17.914  0.00  0.00    +0.000 HD
ENDBRANCH  24  29
BRANCH  24  33
ATOM     33  C   UNL     1      -8.764  -7.552  16.697  0.00  0.00    +0.000 C 
ATOM     34  H   UNL     1      -7.818  -7.017  16.839  0.00  0.00    +0.000 HD
ATOM     35  H   UNL     1      -9.222  -7.178  15.775  0.00  0.00    +0.000 HD
ATOM     36  H   UNL     1      -8.525  -8.609  16.530  0.00  0.00    +0.000 HD
ENDBRANCH  24  33
ENDBRANCH  17  24
ENDBRANCH   6  14
BRANCH   1  37
ATOM     37  C   UNL     1      -9.227  -2.589  23.006  0.00  0.00    +0.000 C 
ATOM     38  H   UNL     1      -9.352  -3.653  22.776  0.00  0.00    +0.000 HD
ATOM     39  H   UNL     1      -9.387  -2.456  24.081  0.00  0.00    +0.000 HD
ATOM     40  H   UNL     1      -8.192  -2.319  22.771  0.00  0.00    +0.000 HD
ENDBRANCH   1  37
BRANCH   3  41
ATOM     41  C   UNL     1     -13.082   0.189  22.120  0.00  0.00    +0.000 C 
ATOM     42  H   UNL     1     -12.964   1.217  21.770  0.00  0.00    +0.000 HD
ATOM     43  H   UNL     1     -13.245   0.176  23.199  0.00  0.00    +0.000 HD
ATOM     44  H   UNL     1     -13.920  -0.286  21.600  0.00  0.00    +0.000 HD
ENDBRANCH   3  41
BRANCH   7  45
ATOM     45  N   UNL     1      -8.800   0.490  18.696  0.00  0.00    +0.000 N 
ATOM     46  C   UNL     1      -8.199   1.150  17.652  0.00  0.00    +0.000 C 
ATOM     47  O   UNL     1      -8.159   0.698  16.513  0.00  0.00    +0.000 OA
ATOM     48  H   UNL     1      -8.892   0.940  19.597  0.00  0.00    +0.000 HD
BRANCH  46  49
ATOM     49  C   UNL     1      -7.588   2.468  17.969  0.00  0.00    +0.000 A 
ATOM     50  C   UNL     1      -8.311   3.488  18.601  0.00  0.00    +0.000 A 
ATOM     51  C   UNL     1      -7.676   4.687  18.936  0.00  0.00    +0.000 A 
ATOM     52  C   UNL     1      -6.324   4.869  18.644  0.00  0.00    +0.000 A 
ATOM     53  C   UNL     1      -5.603   3.857  18.009  0.00  0.00    +0.000 A 
ATOM     54  C   UNL     1      -6.233   2.658  17.673  0.00  0.00    +0.000 A 
ATOM     55  H   UNL     1      -9.353   3.357  18.875  0.00  0.00    +0.000 HD
ATOM     56  H   UNL     1      -8.230   5.474  19.443  0.00  0.00    +0.000 HD
ATOM     57  H   UNL     1      -5.828   5.796  18.921  0.00  0.00    +0.000 HD
ATOM     58  H   UNL     1      -4.549   3.997  17.786  0.00  0.00    +0.000 HD
ATOM     59  H   UNL     1      -5.665   1.867  17.187  0.00  0.00    +0.000 HD
ENDBRANCH  46  49
ENDBRANCH   7  45
TORSDOF 9
ENDMDL
