REMARK  Name = 
REMARK  5 active torsions:
REMARK  status: ('A' for Active; 'I' for Inactive)
REMARK    1  A    between atoms: C_1  and  C_2
REMARK    2  A    between atoms: C_8  and  N_9
REMARK    3  A    between atoms: C_10  and  C_12
REMARK    4  A    between atoms: C_17  and  C_18
REMARK    5  A    between atoms: C_23  and  C_24
REMARK                            x       y       z     vdW  Elec       q    Type
REMARK                         _______ _______ _______ _____ _____    ______ ____
ROOT
ATOM      1  C   UNL     1      -1.167  -0.326  -0.147  0.00  0.00    +0.000 A 
ATOM      2  C   UNL     1      -0.847  -1.345  -1.093  0.00  0.00    +0.000 A 
ATOM      3  C   UNL     1       0.476  -1.626  -0.894  0.00  0.00    +0.000 A 
ATOM      4  N   UNL     1       0.889  -0.772   0.095  0.00  0.00    +0.000 N 
ATOM      5  N   UNL     1      -0.121  -0.082   0.672  0.00  0.00    +0.000 NA
ATOM      6  C   UNL     1       2.260  -0.688   0.562  0.00  0.00    +0.000 C 
ATOM      7  C   UNL     1       3.224  -1.415  -0.401  0.00  0.00    +0.000 C 
ATOM      8  C   UNL     1       2.641  -2.747  -0.900  0.00  0.00    +0.000 C 
ATOM      9  N   UNL     1       1.334  -2.473  -1.504  0.00  0.00    +0.000 N 
ATOM     10  H   UNL     1      -1.505  -1.758  -1.845  0.00  0.00    +0.000 HD
ATOM     11  H   UNL     1       2.261  -1.225   1.520  0.00  0.00    +0.000 HD
ATOM     12  H   UNL     1       4.191  -1.576   0.094  0.00  0.00    +0.000 HD
ATOM     13  H   UNL     1       3.420  -0.777  -1.275  0.00  0.00    +0.000 HD
ATOM     14  H   UNL     1       2.489  -3.421  -0.047  0.00  0.00    +0.000 HD
ATOM     15  H   UNL     1       0.973  -3.226  -2.091  0.00  0.00    +0.000 HD
ENDROOT
BRANCH   8  16
ATOM     16  C   UNL     1       3.607  -3.395  -1.844  0.00  0.00    +0.000 A 
ATOM     17  C   UNL     1       3.810  -3.308  -3.208  0.00  0.00    +0.000 A 
ATOM     18  C   UNL     1       4.902  -4.158  -3.507  0.00  0.00    +0.000 A 
ATOM     19  C   UNL     1       5.298  -4.706  -2.311  0.00  0.00    +0.000 A 
ATOM     20  O   UNL     1       4.519  -4.250  -1.295  0.00  0.00    +0.000 OA
ATOM     21  H   UNL     1       3.239  -2.699  -3.896  0.00  0.00    +0.000 HD
ATOM     22  H   UNL     1       5.349  -4.344  -4.475  0.00  0.00    +0.000 HD
ATOM     23  H   UNL     1       6.077  -5.400  -2.027  0.00  0.00    +0.000 HD
ENDBRANCH   8  16
BRANCH   1  25
ATOM     24  N   UNL     1      -2.508   1.384   0.901  0.00  0.00    +0.000 N 
ATOM     25  C   UNL     1      -2.446   0.399  -0.085  0.00  0.00    +0.000 C 
ATOM     26  O   UNL     1      -3.329   0.132  -0.895  0.00  0.00    +0.000 OA
ATOM     27  H   UNL     1      -1.694   1.422   1.501  0.00  0.00    +0.000 HD
BRANCH  24  34
ATOM     28  C   UNL     1      -3.521   3.232   2.182  0.00  0.00    +0.000 A 
ATOM     29  C   UNL     1      -4.557   4.181   2.322  0.00  0.00    +0.000 A 
ATOM     30  C   UNL     1      -5.604   4.231   1.412  0.00  0.00    +0.000 A 
ATOM     31  F   UNL     1      -6.576   5.139   1.563  0.00  0.00    +0.000 F 
ATOM     32  C   UNL     1      -5.651   3.353   0.348  0.00  0.00    +0.000 A 
ATOM     33  C   UNL     1      -4.631   2.412   0.192  0.00  0.00    +0.000 A 
ATOM     34  C   UNL     1      -3.551   2.329   1.092  0.00  0.00    +0.000 A 
ATOM     35  H   UNL     1      -4.562   4.894   3.143  0.00  0.00    +0.000 HD
ATOM     36  H   UNL     1      -6.469   3.397  -0.363  0.00  0.00    +0.000 HD
ATOM     37  H   UNL     1      -4.714   1.765  -0.672  0.00  0.00    +0.000 HD
BRANCH  28  38
ATOM     38  C   UNL     1      -2.434   3.247   3.223  0.00  0.00    +0.000 C 
ATOM     39  H   UNL     1      -2.670   3.952   4.031  0.00  0.00    +0.000 HD
ATOM     40  H   UNL     1      -1.484   3.562   2.782  0.00  0.00    +0.000 HD
ATOM     41  H   UNL     1      -2.327   2.262   3.686  0.00  0.00    +0.000 HD
ENDBRANCH  28  38
ENDBRANCH  24  34
ENDBRANCH   1  25
BRANCH   6  42
ATOM     42  C   UNL     1       2.717   0.749   0.793  0.00  0.00    +0.000 C 
ATOM     43  F   UNL     1       1.795   1.699   0.533  0.00  0.00    +0.000 F 
ATOM     44  F   UNL     1       3.097   0.909   2.086  0.00  0.00    +0.000 F 
ATOM     45  F   UNL     1       3.802   1.063   0.041  0.00  0.00    +0.000 F 
ENDBRANCH   6  42
TORSDOF 5
