MODEL 1
REMARK VINA RESULT:    -6.393      0.000      0.000
REMARK INTER + INTRA:          -8.320
REMARK INTER:                  -7.701
REMARK INTRA:                  -0.619
REMARK UNBOUND:                -0.619
REMARK  Name = 
REMARK  4 active torsions:
REMARK  status: ('A' for Active; 'I' for Inactive)
REMARK    1  A    between atoms: C_1  and  S_2
REMARK    2  A    between atoms: S_2  and  C_3
REMARK    3  A    between atoms: C_6  and  C_7
REMARK    4  A    between atoms: C_22  and  C_23
REMARK                            x       y       z     vdW  Elec       q    Type
REMARK                         _______ _______ _______ _____ _____    ______ ____
ROOT
ATOM      1  C   UNL     1     -12.240  -1.400  16.431  0.00  0.00    +0.000 C 
ATOM      2  O   UNL     1     -13.311  -0.992  15.535  0.00  0.00    +0.000 OA
ATOM      3  C   UNL     1     -12.890  -1.036  14.218  0.00  0.00    +0.000 A 
ATOM      4  C   UNL     1     -13.452  -0.078  13.389  0.00  0.00    +0.000 A 
ATOM      5  C   UNL     1     -12.701   0.359  12.307  0.00  0.00    +0.000 A 
ATOM      6  C   UNL     1     -11.442  -0.204  12.058  0.00  0.00    +0.000 A 
ATOM      7  C   UNL     1     -10.994  -1.320  12.781  0.00  0.00    +0.000 A 
ATOM      8  C   UNL     1     -11.768  -1.789  13.835  0.00  0.00    +0.000 A 
ATOM      9  C   UNL     1     -11.362  -2.917  14.745  0.00  0.00    +0.000 C 
ATOM     10  N   UNL     1     -10.513  -3.821  14.369  0.00  0.00    +0.000 NA
ATOM     11  C   UNL     1     -10.228  -4.793  15.310  0.00  0.00    +0.000 A 
ATOM     12  N   UNL     1      -9.471  -5.864  15.158  0.00  0.00    +0.000 N 
ATOM     13  C   UNL     1      -9.540  -6.567  16.328  0.00  0.00    +0.000 A 
ATOM     14  N   UNL     1     -10.275  -5.985  17.213  0.00  0.00    +0.000 NA
ATOM     15  N   UNL     1     -10.661  -4.827  16.574  0.00  0.00    +0.000 N 
ATOM     16  C   UNL     1     -11.563  -3.871  17.183  0.00  0.00    +0.000 C 
ATOM     17  C   UNL     1     -12.077  -2.896  16.102  0.00  0.00    +0.000 C 
ATOM     18  H   UNL     1     -12.657  -1.275  17.434  0.00  0.00    +0.000 HD
ATOM     19  H   UNL     1     -14.387   0.411  13.649  0.00  0.00    +0.000 HD
ATOM     20  H   UNL     1     -13.059   1.195  11.710  0.00  0.00    +0.000 HD
ATOM     21  H   UNL     1     -10.803   0.251  11.304  0.00  0.00    +0.000 HD
ATOM     22  H   UNL     1     -10.015  -1.736  12.568  0.00  0.00    +0.000 HD
ATOM     23  H   UNL     1      -8.985  -6.119  14.301  0.00  0.00    +0.000 HD
ATOM     24  H   UNL     1      -9.014  -7.505  16.425  0.00  0.00    +0.000 HD
ATOM     25  H   UNL     1     -12.429  -4.472  17.497  0.00  0.00    +0.000 HD
ATOM     26  H   UNL     1     -13.076  -3.299  15.857  0.00  0.00    +0.000 HD
ENDROOT
BRANCH  16  27
ATOM     27  C   UNL     1     -10.981  -3.316  18.488  0.00  0.00    +0.000 A 
ATOM     28  C   UNL     1      -9.601  -3.219  18.725  0.00  0.00    +0.000 A 
ATOM     29  C   UNL     1      -9.111  -2.604  19.875  0.00  0.00    +0.000 A 
ATOM     30  C   UNL     1     -10.006  -2.147  20.827  0.00  0.00    +0.000 A 
ATOM     31  N   UNL     1     -11.324  -2.321  20.635  0.00  0.00    +0.000 N 
ATOM     32  C   UNL     1     -11.830  -2.882  19.519  0.00  0.00    +0.000 A 
ATOM     33  H   UNL     1      -8.871  -3.584  18.001  0.00  0.00    +0.000 HD
ATOM     34  H   UNL     1      -8.039  -2.473  20.017  0.00  0.00    +0.000 HD
ATOM     35  H   UNL     1      -9.699  -1.652  21.743  0.00  0.00    +0.000 HD
ATOM     36  H   UNL     1     -11.961  -2.003  21.372  0.00  0.00    +0.000 HD
ATOM     37  H   UNL     1     -12.913  -2.952  19.483  0.00  0.00    +0.000 HD
ENDBRANCH  16  27
BRANCH   1  41
ATOM     38  C   UNL     1      -8.648   1.171  16.226  0.00  0.00    +0.000 A 
ATOM     39  C   UNL     1      -9.929   1.721  16.178  0.00  0.00    +0.000 A 
ATOM     40  C   UNL     1     -11.077   0.903  16.268  0.00  0.00    +0.000 A 
ATOM     41  C   UNL     1     -10.979  -0.497  16.357  0.00  0.00    +0.000 A 
ATOM     42  C   UNL     1      -9.682  -1.022  16.291  0.00  0.00    +0.000 A 
ATOM     43  C   UNL     1      -8.542  -0.215  16.266  0.00  0.00    +0.000 A 
ATOM     44  H   UNL     1     -10.071   2.793  16.065  0.00  0.00    +0.000 HD
ATOM     45  H   UNL     1     -12.052   1.387  16.205  0.00  0.00    +0.000 HD
ATOM     46  H   UNL     1      -9.489  -2.078  16.197  0.00  0.00    +0.000 HD
ATOM     47  H   UNL     1      -7.558  -0.686  16.259  0.00  0.00    +0.000 HD
BRANCH  38  48
ATOM     48  S   UNL     1      -7.098   2.052  16.246  0.00  0.00    +0.000 S 
BRANCH  48  49
ATOM     49  C   UNL     1      -5.888   0.829  15.688  0.00  0.00    +0.000 C 
ATOM     50  H   UNL     1      -4.917   1.322  15.589  0.00  0.00    +0.000 HD
ATOM     51  H   UNL     1      -6.166   0.424  14.712  0.00  0.00    +0.000 HD
ATOM     52  H   UNL     1      -5.793   0.024  16.421  0.00  0.00    +0.000 HD
ENDBRANCH  48  49
ENDBRANCH  38  48
ENDBRANCH   1  41
TORSDOF 4
ENDMDL
MODEL 2
REMARK VINA RESULT:    -6.314      3.870      6.930
REMARK INTER + INTRA:          -8.225
REMARK INTER:                  -7.670
REMARK INTRA:                  -0.554
REMARK UNBOUND:                -0.619
REMARK  Name = 
REMARK  4 active torsions:
REMARK  status: ('A' for Active; 'I' for Inactive)
REMARK    1  A    between atoms: C_1  and  S_2
REMARK    2  A    between atoms: S_2  and  C_3
REMARK    3  A    between atoms: C_6  and  C_7
REMARK    4  A    between atoms: C_22  and  C_23
REMARK                            x       y       z     vdW  Elec       q    Type
REMARK                         _______ _______ _______ _____ _____    ______ ____
ROOT
ATOM      1  C   UNL     1     -12.030  -0.558  20.288  0.00  0.00    +0.000 C 
ATOM      2  O   UNL     1     -12.911   0.471  20.817  0.00  0.00    +0.000 OA
ATOM      3  C   UNL     1     -12.177   1.503  21.374  0.00  0.00    +0.000 A 
ATOM      4  C   UNL     1     -12.767   2.124  22.464  0.00  0.00    +0.000 A 
ATOM      5  C   UNL     1     -11.930   2.680  23.420  0.00  0.00    +0.000 A 
ATOM      6  C   UNL     1     -10.541   2.646  23.237  0.00  0.00    +0.000 A 
ATOM      7  C   UNL     1      -9.983   2.210  22.027  0.00  0.00    +0.000 A 
ATOM      8  C   UNL     1     -10.824   1.695  21.049  0.00  0.00    +0.000 A 
ATOM      9  C   UNL     1     -10.347   1.111  19.746  0.00  0.00    +0.000 C 
ATOM     10  N   UNL     1      -9.203   1.439  19.233  0.00  0.00    +0.000 NA
ATOM     11  C   UNL     1      -8.893   0.820  18.037  0.00  0.00    +0.000 A 
ATOM     12  N   UNL     1      -7.840   1.034  17.268  0.00  0.00    +0.000 N 
ATOM     13  C   UNL     1      -7.993   0.249  16.160  0.00  0.00    +0.000 A 
ATOM     14  N   UNL     1      -9.065  -0.464  16.202  0.00  0.00    +0.000 NA
ATOM     15  N   UNL     1      -9.601  -0.136  17.429  0.00  0.00    +0.000 N 
ATOM     16  C   UNL     1     -10.868  -0.668  17.887  0.00  0.00    +0.000 C 
ATOM     17  C   UNL     1     -11.355   0.153  19.100  0.00  0.00    +0.000 C 
ATOM     18  H   UNL     1     -12.705  -1.341  19.929  0.00  0.00    +0.000 HD
ATOM     19  H   UNL     1     -13.838   2.060  22.634  0.00  0.00    +0.000 HD
ATOM     20  H   UNL     1     -12.356   3.065  24.345  0.00  0.00    +0.000 HD
ATOM     21  H   UNL     1      -9.896   2.947  24.061  0.00  0.00    +0.000 HD
ATOM     22  H   UNL     1      -8.904   2.193  21.913  0.00  0.00    +0.000 HD
ATOM     23  H   UNL     1      -7.101   1.705  17.464  0.00  0.00    +0.000 HD
ATOM     24  H   UNL     1      -7.255   0.282  15.371  0.00  0.00    +0.000 HD
ATOM     25  H   UNL     1     -11.568  -0.456  17.065  0.00  0.00    +0.000 HD
ATOM     26  H   UNL     1     -12.096   0.842  18.654  0.00  0.00    +0.000 HD
ENDROOT
BRANCH  16  27
ATOM     27  C   UNL     1     -10.825  -2.198  17.975  0.00  0.00    +0.000 A 
ATOM     28  C   UNL     1      -9.678  -2.906  18.366  0.00  0.00    +0.000 A 
ATOM     29  C   UNL     1      -9.713  -4.287  18.545  0.00  0.00    +0.000 A 
ATOM     30  C   UNL     1     -10.881  -4.974  18.262  0.00  0.00    +0.000 A 
ATOM     31  N   UNL     1     -11.950  -4.301  17.805  0.00  0.00    +0.000 N 
ATOM     32  C   UNL     1     -11.959  -2.962  17.654  0.00  0.00    +0.000 A 
ATOM     33  H   UNL     1      -8.738  -2.395  18.580  0.00  0.00    +0.000 HD
ATOM     34  H   UNL     1      -8.836  -4.818  18.913  0.00  0.00    +0.000 HD
ATOM     35  H   UNL     1     -10.985  -6.047  18.385  0.00  0.00    +0.000 HD
ATOM     36  H   UNL     1     -12.791  -4.839  17.574  0.00  0.00    +0.000 HD
ATOM     37  H   UNL     1     -12.891  -2.541  17.288  0.00  0.00    +0.000 HD
ENDBRANCH  16  27
BRANCH   1  41
ATOM     38  C   UNL     1      -9.426  -2.424  23.336  0.00  0.00    +0.000 A 
ATOM     39  C   UNL     1      -8.950  -2.151  22.054  0.00  0.00    +0.000 A 
ATOM     40  C   UNL     1      -9.773  -1.533  21.088  0.00  0.00    +0.000 A 
ATOM     41  C   UNL     1     -11.116  -1.216  21.358  0.00  0.00    +0.000 A 
ATOM     42  C   UNL     1     -11.592  -1.604  22.616  0.00  0.00    +0.000 A 
ATOM     43  C   UNL     1     -10.766  -2.157  23.598  0.00  0.00    +0.000 A 
ATOM     44  H   UNL     1      -7.934  -2.414  21.770  0.00  0.00    +0.000 HD
ATOM     45  H   UNL     1      -9.352  -1.362  20.097  0.00  0.00    +0.000 HD
ATOM     46  H   UNL     1     -12.636  -1.552  22.881  0.00  0.00    +0.000 HD
ATOM     47  H   UNL     1     -11.189  -2.398  24.574  0.00  0.00    +0.000 HD
BRANCH  38  48
ATOM     48  S   UNL     1      -8.503  -3.085  24.710  0.00  0.00    +0.000 S 
BRANCH  48  49
ATOM     49  C   UNL     1      -9.064  -2.114  26.129  0.00  0.00    +0.000 C 
ATOM     50  H   UNL     1      -8.558  -1.145  26.108  0.00  0.00    +0.000 HD
ATOM     51  H   UNL     1      -8.808  -2.613  27.067  0.00  0.00    +0.000 HD
ATOM     52  H   UNL     1     -10.142  -1.942  26.072  0.00  0.00    +0.000 HD
ENDBRANCH  48  49
ENDBRANCH  38  48
ENDBRANCH   1  41
TORSDOF 4
ENDMDL
MODEL 3
REMARK VINA RESULT:    -6.217      3.163      5.863
REMARK INTER + INTRA:          -8.108
REMARK INTER:                  -8.726
REMARK INTRA:                   0.619
REMARK UNBOUND:                -0.619
REMARK  Name = 
REMARK  4 active torsions:
REMARK  status: ('A' for Active; 'I' for Inactive)
REMARK    1  A    between atoms: C_1  and  S_2
REMARK    2  A    between atoms: S_2  and  C_3
REMARK    3  A    between atoms: C_6  and  C_7
REMARK    4  A    between atoms: C_22  and  C_23
REMARK                            x       y       z     vdW  Elec       q    Type
REMARK                         _______ _______ _______ _____ _____    ______ ____
ROOT
ATOM      1  C   UNL     1     -11.078  -4.498  18.569  0.00  0.00    +0.000 C 
ATOM      2  O   UNL     1     -11.835  -3.666  19.490  0.00  0.00    +0.000 OA
ATOM      3  C   UNL     1     -11.299  -2.392  19.553  0.00  0.00    +0.000 A 
ATOM      4  C   UNL     1     -11.404  -1.768  20.786  0.00  0.00    +0.000 A 
ATOM      5  C   UNL     1     -10.427  -0.845  21.127  0.00  0.00    +0.000 A 
ATOM      6  C   UNL     1      -9.409  -0.537  20.216  0.00  0.00    +0.000 A 
ATOM      7  C   UNL     1      -9.450  -1.016  18.898  0.00  0.00    +0.000 A 
ATOM      8  C   UNL     1     -10.455  -1.904  18.540  0.00  0.00    +0.000 A 
ATOM      9  C   UNL     1     -10.562  -2.562  17.190  0.00  0.00    +0.000 C 
ATOM     10  N   UNL     1     -10.025  -2.035  16.135  0.00  0.00    +0.000 NA
ATOM     11  C   UNL     1     -10.197  -2.752  14.965  0.00  0.00    +0.000 A 
ATOM     12  N   UNL     1      -9.829  -2.403  13.745  0.00  0.00    +0.000 N 
ATOM     13  C   UNL     1     -10.268  -3.385  12.903  0.00  0.00    +0.000 A 
ATOM     14  N   UNL     1     -10.867  -4.341  13.526  0.00  0.00    +0.000 NA
ATOM     15  N   UNL     1     -10.764  -3.956  14.845  0.00  0.00    +0.000 N 
ATOM     16  C   UNL     1     -11.361  -4.718  15.923  0.00  0.00    +0.000 C 
ATOM     17  C   UNL     1     -11.386  -3.855  17.203  0.00  0.00    +0.000 C 
ATOM     18  H   UNL     1     -11.546  -5.484  18.640  0.00  0.00    +0.000 HD
ATOM     19  H   UNL     1     -12.146  -2.086  21.514  0.00  0.00    +0.000 HD
ATOM     20  H   UNL     1     -10.411  -0.431  22.134  0.00  0.00    +0.000 HD
ATOM     21  H   UNL     1      -8.569   0.069  20.552  0.00  0.00    +0.000 HD
ATOM     22  H   UNL     1      -8.647  -0.763  18.213  0.00  0.00    +0.000 HD
ATOM     23  H   UNL     1      -9.357  -1.534  13.504  0.00  0.00    +0.000 HD
ATOM     24  H   UNL     1     -10.101  -3.297  11.839  0.00  0.00    +0.000 HD
ATOM     25  H   UNL     1     -12.409  -4.852  15.617  0.00  0.00    +0.000 HD
ATOM     26  H   UNL     1     -12.425  -3.482  17.232  0.00  0.00    +0.000 HD
ENDROOT
BRANCH  16  27
ATOM     27  C   UNL     1     -10.787  -6.139  15.978  0.00  0.00    +0.000 A 
ATOM     28  C   UNL     1     -11.443  -7.200  16.622  0.00  0.00    +0.000 A 
ATOM     29  C   UNL     1     -10.947  -8.499  16.551  0.00  0.00    +0.000 A 
ATOM     30  C   UNL     1      -9.750  -8.728  15.894  0.00  0.00    +0.000 A 
ATOM     31  N   UNL     1      -9.082  -7.695  15.354  0.00  0.00    +0.000 N 
ATOM     32  C   UNL     1      -9.553  -6.433  15.376  0.00  0.00    +0.000 A 
ATOM     33  H   UNL     1     -12.379  -7.049  17.161  0.00  0.00    +0.000 HD
ATOM     34  H   UNL     1     -11.498  -9.326  16.996  0.00  0.00    +0.000 HD
ATOM     35  H   UNL     1      -9.306  -9.714  15.792  0.00  0.00    +0.000 HD
ATOM     36  H   UNL     1      -8.184  -7.889  14.902  0.00  0.00    +0.000 HD
ATOM     37  H   UNL     1      -8.921  -5.692  14.894  0.00  0.00    +0.000 HD
ENDBRANCH  16  27
BRANCH   1  41
ATOM     38  C   UNL     1      -6.835  -5.018  19.699  0.00  0.00    +0.000 A 
ATOM     39  C   UNL     1      -7.367  -5.670  18.588  0.00  0.00    +0.000 A 
ATOM     40  C   UNL     1      -8.716  -5.486  18.212  0.00  0.00    +0.000 A 
ATOM     41  C   UNL     1      -9.588  -4.682  18.967  0.00  0.00    +0.000 A 
ATOM     42  C   UNL     1      -9.050  -4.132  20.137  0.00  0.00    +0.000 A 
ATOM     43  C   UNL     1      -7.701  -4.259  20.479  0.00  0.00    +0.000 A 
ATOM     44  H   UNL     1      -6.755  -6.341  17.989  0.00  0.00    +0.000 HD
ATOM     45  H   UNL     1      -9.081  -6.037  17.345  0.00  0.00    +0.000 HD
ATOM     46  H   UNL     1      -9.656  -3.627  20.871  0.00  0.00    +0.000 HD
ATOM     47  H   UNL     1      -7.334  -3.769  21.382  0.00  0.00    +0.000 HD
BRANCH  38  48
ATOM     48  S   UNL     1      -5.139  -5.038  20.251  0.00  0.00    +0.000 S 
BRANCH  48  49
ATOM     49  C   UNL     1      -5.034  -3.653  21.409  0.00  0.00    +0.000 C 
ATOM     50  H   UNL     1      -3.993  -3.324  21.463  0.00  0.00    +0.000 HD
ATOM     51  H   UNL     1      -5.349  -3.958  22.410  0.00  0.00    +0.000 HD
ATOM     52  H   UNL     1      -5.642  -2.815  21.058  0.00  0.00    +0.000 HD
ENDBRANCH  48  49
ENDBRANCH  38  48
ENDBRANCH   1  41
TORSDOF 4
ENDMDL
MODEL 4
REMARK VINA RESULT:    -6.192      3.595      6.185
REMARK INTER + INTRA:          -8.077
REMARK INTER:                  -8.466
REMARK INTRA:                   0.388
REMARK UNBOUND:                -0.619
REMARK  Name = 
REMARK  4 active torsions:
REMARK  status: ('A' for Active; 'I' for Inactive)
REMARK    1  A    between atoms: C_1  and  S_2
REMARK    2  A    between atoms: S_2  and  C_3
REMARK    3  A    between atoms: C_6  and  C_7
REMARK    4  A    between atoms: C_22  and  C_23
REMARK                            x       y       z     vdW  Elec       q    Type
REMARK                         _______ _______ _______ _____ _____    ______ ____
ROOT
ATOM      1  C   UNL     1      -9.887  -5.967  19.390  0.00  0.00    +0.000 C 
ATOM      2  O   UNL     1     -10.327  -7.334  19.156  0.00  0.00    +0.000 OA
ATOM      3  C   UNL     1      -9.699  -7.867  18.044  0.00  0.00    +0.000 A 
ATOM      4  C   UNL     1     -10.459  -8.767  17.315  0.00  0.00    +0.000 A 
ATOM      5  C   UNL     1     -10.212  -8.865  15.954  0.00  0.00    +0.000 A 
ATOM      6  C   UNL     1      -9.189  -8.104  15.373  0.00  0.00    +0.000 A 
ATOM      7  C   UNL     1      -8.296  -7.369  16.167  0.00  0.00    +0.000 A 
ATOM      8  C   UNL     1      -8.514  -7.308  17.537  0.00  0.00    +0.000 A 
ATOM      9  C   UNL     1      -7.688  -6.484  18.489  0.00  0.00    +0.000 C 
ATOM     10  N   UNL     1      -6.471  -6.139  18.207  0.00  0.00    +0.000 NA
ATOM     11  C   UNL     1      -5.835  -5.378  19.170  0.00  0.00    +0.000 A 
ATOM     12  N   UNL     1      -4.579  -4.969  19.174  0.00  0.00    +0.000 N 
ATOM     13  C   UNL     1      -4.380  -4.312  20.355  0.00  0.00    +0.000 A 
ATOM     14  N   UNL     1      -5.445  -4.263  21.080  0.00  0.00    +0.000 NA
ATOM     15  N   UNL     1      -6.381  -4.894  20.289  0.00  0.00    +0.000 N 
ATOM     16  C   UNL     1      -7.739  -5.126  20.735  0.00  0.00    +0.000 C 
ATOM     17  C   UNL     1      -8.413  -6.152  19.798  0.00  0.00    +0.000 C 
ATOM     18  H   UNL     1     -10.479  -5.629  20.245  0.00  0.00    +0.000 HD
ATOM     19  H   UNL     1     -11.306  -9.280  17.764  0.00  0.00    +0.000 HD
ATOM     20  H   UNL     1     -10.871  -9.470  15.332  0.00  0.00    +0.000 HD
ATOM     21  H   UNL     1      -9.108  -8.075  14.288  0.00  0.00    +0.000 HD
ATOM     22  H   UNL     1      -7.514  -6.787  15.691  0.00  0.00    +0.000 HD
ATOM     23  H   UNL     1      -3.898  -5.168  18.445  0.00  0.00    +0.000 HD
ATOM     24  H   UNL     1      -3.406  -3.909  20.590  0.00  0.00    +0.000 HD
ATOM     25  H   UNL     1      -7.628  -5.622  21.711  0.00  0.00    +0.000 HD
ATOM     26  H   UNL     1      -8.336  -7.097  20.366  0.00  0.00    +0.000 HD
ENDROOT
BRANCH  16  27
ATOM     27  C   UNL     1      -8.451  -3.805  21.049  0.00  0.00    +0.000 A 
ATOM     28  C   UNL     1      -8.513  -2.739  20.137  0.00  0.00    +0.000 A 
ATOM     29  C   UNL     1      -9.267  -1.601  20.414  0.00  0.00    +0.000 A 
ATOM     30  C   UNL     1      -9.902  -1.495  21.639  0.00  0.00    +0.000 A 
ATOM     31  N   UNL     1      -9.768  -2.481  22.542  0.00  0.00    +0.000 N 
ATOM     32  C   UNL     1      -9.074  -3.609  22.291  0.00  0.00    +0.000 A 
ATOM     33  H   UNL     1      -8.010  -2.785  19.170  0.00  0.00    +0.000 HD
ATOM     34  H   UNL     1      -9.363  -0.809  19.673  0.00  0.00    +0.000 HD
ATOM     35  H   UNL     1     -10.512  -0.643  21.922  0.00  0.00    +0.000 HD
ATOM     36  H   UNL     1     -10.222  -2.361  23.452  0.00  0.00    +0.000 HD
ATOM     37  H   UNL     1      -9.053  -4.332  23.102  0.00  0.00    +0.000 HD
ENDBRANCH  16  27
BRANCH   1  41
ATOM     38  C   UNL     1     -10.779  -3.208  16.051  0.00  0.00    +0.000 A 
ATOM     39  C   UNL     1      -9.699  -2.980  16.903  0.00  0.00    +0.000 A 
ATOM     40  C   UNL     1      -9.398  -3.873  17.954  0.00  0.00    +0.000 A 
ATOM     41  C   UNL     1     -10.201  -4.997  18.218  0.00  0.00    +0.000 A 
ATOM     42  C   UNL     1     -11.340  -5.134  17.414  0.00  0.00    +0.000 A 
ATOM     43  C   UNL     1     -11.606  -4.290  16.333  0.00  0.00    +0.000 A 
ATOM     44  H   UNL     1      -9.066  -2.104  16.778  0.00  0.00    +0.000 HD
ATOM     45  H   UNL     1      -8.553  -3.633  18.599  0.00  0.00    +0.000 HD
ATOM     46  H   UNL     1     -12.107  -5.864  17.617  0.00  0.00    +0.000 HD
ATOM     47  H   UNL     1     -12.487  -4.477  15.719  0.00  0.00    +0.000 HD
BRANCH  38  48
ATOM     48  S   UNL     1     -11.235  -2.261  14.612  0.00  0.00    +0.000 S 
BRANCH  48  49
ATOM     49  C   UNL     1     -11.764  -3.506  13.412  0.00  0.00    +0.000 C 
ATOM     50  H   UNL     1     -11.124  -4.386  13.521  0.00  0.00    +0.000 HD
ATOM     51  H   UNL     1     -11.658  -3.131  12.391  0.00  0.00    +0.000 HD
ATOM     52  H   UNL     1     -12.798  -3.805  13.602  0.00  0.00    +0.000 HD
ENDBRANCH  48  49
ENDBRANCH  38  48
ENDBRANCH   1  41
TORSDOF 4
ENDMDL
MODEL 5
REMARK VINA RESULT:    -6.111      3.749      6.087
REMARK INTER + INTRA:          -7.979
REMARK INTER:                  -9.418
REMARK INTRA:                   1.439
REMARK UNBOUND:                -0.619
REMARK  Name = 
REMARK  4 active torsions:
REMARK  status: ('A' for Active; 'I' for Inactive)
REMARK    1  A    between atoms: C_1  and  S_2
REMARK    2  A    between atoms: S_2  and  C_3
REMARK    3  A    between atoms: C_6  and  C_7
REMARK    4  A    between atoms: C_22  and  C_23
REMARK                            x       y       z     vdW  Elec       q    Type
REMARK                         _______ _______ _______ _____ _____    ______ ____
ROOT
ATOM      1  C   UNL     1     -10.556  -6.612  18.621  0.00  0.00    +0.000 C 
ATOM      2  O   UNL     1     -11.579  -5.579  18.609  0.00  0.00    +0.000 OA
ATOM      3  C   UNL     1     -11.289  -4.615  17.660  0.00  0.00    +0.000 A 
ATOM      4  C   UNL     1     -11.690  -3.329  17.986  0.00  0.00    +0.000 A 
ATOM      5  C   UNL     1     -10.952  -2.273  17.470  0.00  0.00    +0.000 A 
ATOM      6  C   UNL     1      -9.875  -2.528  16.611  0.00  0.00    +0.000 A 
ATOM      7  C   UNL     1      -9.629  -3.821  16.125  0.00  0.00    +0.000 A 
ATOM      8  C   UNL     1     -10.398  -4.873  16.605  0.00  0.00    +0.000 A 
ATOM      9  C   UNL     1     -10.179  -6.316  16.237  0.00  0.00    +0.000 C 
ATOM     10  N   UNL     1      -9.587  -6.654  15.135  0.00  0.00    +0.000 NA
ATOM     11  C   UNL     1      -9.449  -8.014  14.930  0.00  0.00    +0.000 A 
ATOM     12  N   UNL     1      -8.964  -8.623  13.863  0.00  0.00    +0.000 N 
ATOM     13  C   UNL     1      -9.091  -9.966  14.082  0.00  0.00    +0.000 A 
ATOM     14  N   UNL     1      -9.603 -10.234  15.234  0.00  0.00    +0.000 NA
ATOM     15  N   UNL     1      -9.772  -8.984  15.790  0.00  0.00    +0.000 N 
ATOM     16  C   UNL     1     -10.386  -8.792  17.088  0.00  0.00    +0.000 C 
ATOM     17  C   UNL     1     -10.757  -7.303  17.259  0.00  0.00    +0.000 C 
ATOM     18  H   UNL     1     -10.850  -7.282  19.435  0.00  0.00    +0.000 HD
ATOM     19  H   UNL     1     -12.468  -3.154  18.725  0.00  0.00    +0.000 HD
ATOM     20  H   UNL     1     -11.164  -1.259  17.804  0.00  0.00    +0.000 HD
ATOM     21  H   UNL     1      -9.216  -1.706  16.338  0.00  0.00    +0.000 HD
ATOM     22  H   UNL     1      -8.788  -3.990  15.461  0.00  0.00    +0.000 HD
ATOM     23  H   UNL     1      -8.620  -8.153  13.029  0.00  0.00    +0.000 HD
ATOM     24  H   UNL     1      -8.780 -10.667  13.321  0.00  0.00    +0.000 HD
ATOM     25  H   UNL     1     -11.335  -9.345  17.028  0.00  0.00    +0.000 HD
ATOM     26  H   UNL     1     -11.838  -7.287  17.029  0.00  0.00    +0.000 HD
ENDROOT
BRANCH  16  27
ATOM     27  C   UNL     1      -9.589  -9.505  18.187  0.00  0.00    +0.000 A 
ATOM     28  C   UNL     1      -8.839 -10.667  17.949  0.00  0.00    +0.000 A 
ATOM     29  C   UNL     1      -8.036 -11.219  18.946  0.00  0.00    +0.000 A 
ATOM     30  C   UNL     1      -8.040 -10.648  20.207  0.00  0.00    +0.000 A 
ATOM     31  N   UNL     1      -8.827  -9.587  20.451  0.00  0.00    +0.000 N 
ATOM     32  C   UNL     1      -9.587  -9.010  19.501  0.00  0.00    +0.000 A 
ATOM     33  H   UNL     1      -8.828 -11.149  16.971  0.00  0.00    +0.000 HD
ATOM     34  H   UNL     1      -7.406 -12.082  18.732  0.00  0.00    +0.000 HD
ATOM     35  H   UNL     1      -7.436 -11.019  21.029  0.00  0.00    +0.000 HD
ATOM     36  H   UNL     1      -8.833  -9.206  21.402  0.00  0.00    +0.000 HD
ATOM     37  H   UNL     1     -10.168  -8.152  19.827  0.00  0.00    +0.000 HD
ENDBRANCH  16  27
BRANCH   1  41
ATOM     38  C   UNL     1      -6.511  -5.124  19.613  0.00  0.00    +0.000 A 
ATOM     39  C   UNL     1      -7.644  -4.590  20.227  0.00  0.00    +0.000 A 
ATOM     40  C   UNL     1      -8.934  -5.082  19.929  0.00  0.00    +0.000 A 
ATOM     41  C   UNL     1      -9.135  -6.088  18.968  0.00  0.00    +0.000 A 
ATOM     42  C   UNL     1      -7.988  -6.522  18.291  0.00  0.00    +0.000 A 
ATOM     43  C   UNL     1      -6.704  -6.086  18.627  0.00  0.00    +0.000 A 
ATOM     44  H   UNL     1      -7.558  -3.779  20.946  0.00  0.00    +0.000 HD
ATOM     45  H   UNL     1      -9.783  -4.613  20.427  0.00  0.00    +0.000 HD
ATOM     46  H   UNL     1      -8.034  -7.175  17.435  0.00  0.00    +0.000 HD
ATOM     47  H   UNL     1      -5.848  -6.495  18.091  0.00  0.00    +0.000 HD
BRANCH  38  48
ATOM     48  S   UNL     1      -4.810  -4.714  19.949  0.00  0.00    +0.000 S 
BRANCH  48  49
ATOM     49  C   UNL     1      -4.888  -3.680  21.431  0.00  0.00    +0.000 C 
ATOM     50  H   UNL     1      -5.772  -3.966  22.007  0.00  0.00    +0.000 HD
ATOM     51  H   UNL     1      -4.981  -2.624  21.164  0.00  0.00    +0.000 HD
ATOM     52  H   UNL     1      -4.004  -3.838  22.054  0.00  0.00    +0.000 HD
ENDBRANCH  48  49
ENDBRANCH  38  48
ENDBRANCH   1  41
TORSDOF 4
ENDMDL
MODEL 6
REMARK VINA RESULT:    -5.996      3.049      6.630
REMARK INTER + INTRA:          -7.841
REMARK INTER:                  -7.530
REMARK INTRA:                  -0.311
REMARK UNBOUND:                -0.619
REMARK  Name = 
REMARK  4 active torsions:
REMARK  status: ('A' for Active; 'I' for Inactive)
REMARK    1  A    between atoms: C_1  and  S_2
REMARK    2  A    between atoms: S_2  and  C_3
REMARK    3  A    between atoms: C_6  and  C_7
REMARK    4  A    between atoms: C_22  and  C_23
REMARK                            x       y       z     vdW  Elec       q    Type
REMARK                         _______ _______ _______ _____ _____    ______ ____
ROOT
ATOM      1  C   UNL     1     -11.935  -1.992  15.828  0.00  0.00    +0.000 C 
ATOM      2  O   UNL     1     -12.429  -1.463  17.089  0.00  0.00    +0.000 OA
ATOM      3  C   UNL     1     -11.409  -1.383  18.020  0.00  0.00    +0.000 A 
ATOM      4  C   UNL     1     -11.793  -1.596  19.334  0.00  0.00    +0.000 A 
ATOM      5  C   UNL     1     -10.854  -2.137  20.200  0.00  0.00    +0.000 A 
ATOM      6  C   UNL     1      -9.555  -2.401  19.746  0.00  0.00    +0.000 A 
ATOM      7  C   UNL     1      -9.132  -1.974  18.479  0.00  0.00    +0.000 A 
ATOM      8  C   UNL     1     -10.060  -1.389  17.626  0.00  0.00    +0.000 A 
ATOM      9  C   UNL     1      -9.762  -0.971  16.211  0.00  0.00    +0.000 C 
ATOM     10  N   UNL     1      -8.555  -0.699  15.824  0.00  0.00    +0.000 NA
ATOM     11  C   UNL     1      -8.429  -0.335  14.497  0.00  0.00    +0.000 A 
ATOM     12  N   UNL     1      -7.337   0.070  13.872  0.00  0.00    +0.000 N 
ATOM     13  C   UNL     1      -7.706   0.387  12.595  0.00  0.00    +0.000 A 
ATOM     14  N   UNL     1      -8.959   0.180  12.375  0.00  0.00    +0.000 NA
ATOM     15  N   UNL     1      -9.397  -0.336  13.576  0.00  0.00    +0.000 N 
ATOM     16  C   UNL     1     -10.787  -0.668  13.813  0.00  0.00    +0.000 C 
ATOM     17  C   UNL     1     -11.011  -0.866  15.328  0.00  0.00    +0.000 C 
ATOM     18  H   UNL     1     -12.823  -2.066  15.193  0.00  0.00    +0.000 HD
ATOM     19  H   UNL     1     -12.827  -1.471  19.644  0.00  0.00    +0.000 HD
ATOM     20  H   UNL     1     -11.158  -2.430  21.204  0.00  0.00    +0.000 HD
ATOM     21  H   UNL     1      -8.879  -2.963  20.388  0.00  0.00    +0.000 HD
ATOM     22  H   UNL     1      -8.121  -2.193  18.152  0.00  0.00    +0.000 HD
ATOM     23  H   UNL     1      -6.421   0.169  14.303  0.00  0.00    +0.000 HD
ATOM     24  H   UNL     1      -6.971   0.771  11.902  0.00  0.00    +0.000 HD
ATOM     25  H   UNL     1     -11.339   0.242  13.533  0.00  0.00    +0.000 HD
ATOM     26  H   UNL     1     -11.452   0.098  15.643  0.00  0.00    +0.000 HD
ENDROOT
BRANCH  16  27
ATOM     27  C   UNL     1     -11.275  -1.737  12.830  0.00  0.00    +0.000 A 
ATOM     28  C   UNL     1     -12.636  -1.978  12.580  0.00  0.00    +0.000 A 
ATOM     29  C   UNL     1     -13.036  -2.878  11.595  0.00  0.00    +0.000 A 
ATOM     30  C   UNL     1     -12.074  -3.595  10.906  0.00  0.00    +0.000 A 
ATOM     31  N   UNL     1     -10.776  -3.424  11.209  0.00  0.00    +0.000 N 
ATOM     32  C   UNL     1     -10.355  -2.537  12.133  0.00  0.00    +0.000 A 
ATOM     33  H   UNL     1     -13.418  -1.441  13.117  0.00  0.00    +0.000 HD
ATOM     34  H   UNL     1     -14.092  -3.007  11.362  0.00  0.00    +0.000 HD
ATOM     35  H   UNL     1     -12.310  -4.307  10.121  0.00  0.00    +0.000 HD
ATOM     36  H   UNL     1     -10.088  -3.991  10.706  0.00  0.00    +0.000 HD
ATOM     37  H   UNL     1      -9.279  -2.488  12.274  0.00  0.00    +0.000 HD
ENDBRANCH  16  27
BRANCH   1  41
ATOM     38  C   UNL     1     -10.249  -6.068  16.137  0.00  0.00    +0.000 A 
ATOM     39  C   UNL     1      -9.856  -5.204  15.116  0.00  0.00    +0.000 A 
ATOM     40  C   UNL     1     -10.375  -3.893  15.031  0.00  0.00    +0.000 A 
ATOM     41  C   UNL     1     -11.344  -3.424  15.935  0.00  0.00    +0.000 A 
ATOM     42  C   UNL     1     -11.798  -4.355  16.878  0.00  0.00    +0.000 A 
ATOM     43  C   UNL     1     -11.242  -5.630  17.007  0.00  0.00    +0.000 A 
ATOM     44  H   UNL     1      -9.142  -5.522  14.360  0.00  0.00    +0.000 HD
ATOM     45  H   UNL     1     -10.044  -3.269  14.200  0.00  0.00    +0.000 HD
ATOM     46  H   UNL     1     -12.641  -4.163  17.522  0.00  0.00    +0.000 HD
ATOM     47  H   UNL     1     -11.610  -6.293  17.791  0.00  0.00    +0.000 HD
BRANCH  38  48
ATOM     48  S   UNL     1      -9.617  -7.702  16.469  0.00  0.00    +0.000 S 
BRANCH  48  49
ATOM     49  C   UNL     1     -11.029  -8.792  16.168  0.00  0.00    +0.000 C 
ATOM     50  H   UNL     1     -10.943  -9.199  15.157  0.00  0.00    +0.000 HD
ATOM     51  H   UNL     1     -11.968  -8.238  16.235  0.00  0.00    +0.000 HD
ATOM     52  H   UNL     1     -11.026  -9.624  16.877  0.00  0.00    +0.000 HD
ENDBRANCH  48  49
ENDBRANCH  38  48
ENDBRANCH   1  41
TORSDOF 4
ENDMDL
MODEL 7
REMARK VINA RESULT:    -5.765      2.224      2.729
REMARK INTER + INTRA:          -7.563
REMARK INTER:                  -6.977
REMARK INTRA:                  -0.586
REMARK UNBOUND:                -0.619
REMARK  Name = 
REMARK  4 active torsions:
REMARK  status: ('A' for Active; 'I' for Inactive)
REMARK    1  A    between atoms: C_1  and  S_2
REMARK    2  A    between atoms: S_2  and  C_3
REMARK    3  A    between atoms: C_6  and  C_7
REMARK    4  A    between atoms: C_22  and  C_23
REMARK                            x       y       z     vdW  Elec       q    Type
REMARK                         _______ _______ _______ _____ _____    ______ ____
ROOT
ATOM      1  C   UNL     1     -12.058  -0.648  14.843  0.00  0.00    +0.000 C 
ATOM      2  O   UNL     1     -13.133  -0.834  13.882  0.00  0.00    +0.000 OA
ATOM      3  C   UNL     1     -12.815  -1.833  12.979  0.00  0.00    +0.000 A 
ATOM      4  C   UNL     1     -13.316  -1.652  11.700  0.00  0.00    +0.000 A 
ATOM      5  C   UNL     1     -12.596  -2.192  10.644  0.00  0.00    +0.000 A 
ATOM      6  C   UNL     1     -11.434  -2.932  10.896  0.00  0.00    +0.000 A 
ATOM      7  C   UNL     1     -11.072  -3.284  12.205  0.00  0.00    +0.000 A 
ATOM      8  C   UNL     1     -11.819  -2.783  13.264  0.00  0.00    +0.000 A 
ATOM      9  C   UNL     1     -11.486  -3.008  14.714  0.00  0.00    +0.000 C 
ATOM     10  N   UNL     1     -10.779  -4.023  15.099  0.00  0.00    +0.000 NA
ATOM     11  C   UNL     1     -10.546  -4.100  16.459  0.00  0.00    +0.000 A 
ATOM     12  N   UNL     1      -9.934  -5.066  17.119  0.00  0.00    +0.000 N 
ATOM     13  C   UNL     1     -10.003  -4.746  18.446  0.00  0.00    +0.000 A 
ATOM     14  N   UNL     1     -10.599  -3.623  18.654  0.00  0.00    +0.000 NA
ATOM     15  N   UNL     1     -10.889  -3.191  17.377  0.00  0.00    +0.000 N 
ATOM     16  C   UNL     1     -11.627  -1.971  17.122  0.00  0.00    +0.000 C 
ATOM     17  C   UNL     1     -12.096  -1.958  15.651  0.00  0.00    +0.000 C 
ATOM     18  H   UNL     1     -12.385   0.192  15.464  0.00  0.00    +0.000 HD
ATOM     19  H   UNL     1     -14.165  -1.000  11.517  0.00  0.00    +0.000 HD
ATOM     20  H   UNL     1     -12.894  -1.964   9.622  0.00  0.00    +0.000 HD
ATOM     21  H   UNL     1     -10.801  -3.217  10.058  0.00  0.00    +0.000 HD
ATOM     22  H   UNL     1     -10.166  -3.857  12.372  0.00  0.00    +0.000 HD
ATOM     23  H   UNL     1      -9.543  -5.905  16.696  0.00  0.00    +0.000 HD
ATOM     24  H   UNL     1      -9.585  -5.415  19.184  0.00  0.00    +0.000 HD
ATOM     25  H   UNL     1     -12.534  -2.063  17.738  0.00  0.00    +0.000 HD
ATOM     26  H   UNL     1     -13.151  -2.280  15.723  0.00  0.00    +0.000 HD
ENDROOT
BRANCH  16  27
ATOM     27  C   UNL     1     -10.892  -0.752  17.693  0.00  0.00    +0.000 A 
ATOM     28  C   UNL     1      -9.492  -0.670  17.759  0.00  0.00    +0.000 A 
ATOM     29  C   UNL     1      -8.861   0.500  18.177  0.00  0.00    +0.000 A 
ATOM     30  C   UNL     1      -9.634   1.568  18.600  0.00  0.00    +0.000 A 
ATOM     31  N   UNL     1     -10.972   1.452  18.616  0.00  0.00    +0.000 N 
ATOM     32  C   UNL     1     -11.613   0.348  18.187  0.00  0.00    +0.000 A 
ATOM     33  H   UNL     1      -8.857  -1.500  17.448  0.00  0.00    +0.000 HD
ATOM     34  H   UNL     1      -7.775   0.577  18.161  0.00  0.00    +0.000 HD
ATOM     35  H   UNL     1      -9.213   2.512  18.932  0.00  0.00    +0.000 HD
ATOM     36  H   UNL     1     -11.517   2.247  18.965  0.00  0.00    +0.000 HD
ATOM     37  H   UNL     1     -12.697   0.387  18.242  0.00  0.00    +0.000 HD
ENDBRANCH  16  27
BRANCH   1  41
ATOM     38  C   UNL     1      -8.210   0.553  13.024  0.00  0.00    +0.000 A 
ATOM     39  C   UNL     1      -9.417   1.073  12.560  0.00  0.00    +0.000 A 
ATOM     40  C   UNL     1     -10.645   0.709  13.156  0.00  0.00    +0.000 A 
ATOM     41  C   UNL     1     -10.706  -0.227  14.202  0.00  0.00    +0.000 A 
ATOM     42  C   UNL     1      -9.488  -0.813  14.568  0.00  0.00    +0.000 A 
ATOM     43  C   UNL     1      -8.265  -0.410  14.026  0.00  0.00    +0.000 A 
ATOM     44  H   UNL     1      -9.440   1.769  11.724  0.00  0.00    +0.000 HD
ATOM     45  H   UNL     1     -11.558   1.135  12.739  0.00  0.00    +0.000 HD
ATOM     46  H   UNL     1      -9.427  -1.648  15.247  0.00  0.00    +0.000 HD
ATOM     47  H   UNL     1      -7.346  -0.875  14.385  0.00  0.00    +0.000 HD
BRANCH  38  48
ATOM     48  S   UNL     1      -6.569   0.984  12.476  0.00  0.00    +0.000 S 
BRANCH  48  49
ATOM     49  C   UNL     1      -6.311  -0.038  11.007  0.00  0.00    +0.000 C 
ATOM     50  H   UNL     1      -5.321  -0.497  11.073  0.00  0.00    +0.000 HD
ATOM     51  H   UNL     1      -6.344   0.570  10.099  0.00  0.00    +0.000 HD
ATOM     52  H   UNL     1      -7.058  -0.834  10.959  0.00  0.00    +0.000 HD
ENDBRANCH  48  49
ENDBRANCH  38  48
ENDBRANCH   1  41
TORSDOF 4
ENDMDL
MODEL 8
REMARK VINA RESULT:    -5.740      2.754      4.021
REMARK INTER + INTRA:          -7.534
REMARK INTER:                  -6.959
REMARK INTRA:                  -0.575
REMARK UNBOUND:                -0.619
REMARK  Name = 
REMARK  4 active torsions:
REMARK  status: ('A' for Active; 'I' for Inactive)
REMARK    1  A    between atoms: C_1  and  S_2
REMARK    2  A    between atoms: S_2  and  C_3
REMARK    3  A    between atoms: C_6  and  C_7
REMARK    4  A    between atoms: C_22  and  C_23
REMARK                            x       y       z     vdW  Elec       q    Type
REMARK                         _______ _______ _______ _____ _____    ______ ____
ROOT
ATOM      1  C   UNL     1     -11.898  -0.210  12.834  0.00  0.00    +0.000 C 
ATOM      2  O   UNL     1     -12.866   0.014  11.772  0.00  0.00    +0.000 OA
ATOM      3  C   UNL     1     -12.766  -0.968  10.803  0.00  0.00    +0.000 A 
ATOM      4  C   UNL     1     -13.045  -0.550   9.511  0.00  0.00    +0.000 A 
ATOM      5  C   UNL     1     -12.409  -1.209   8.469  0.00  0.00    +0.000 A 
ATOM      6  C   UNL     1     -11.558  -2.289   8.741  0.00  0.00    +0.000 A 
ATOM      7  C   UNL     1     -11.466  -2.827  10.033  0.00  0.00    +0.000 A 
ATOM      8  C   UNL     1     -12.139  -2.197  11.071  0.00  0.00    +0.000 A 
ATOM      9  C   UNL     1     -12.052  -2.616  12.514  0.00  0.00    +0.000 C 
ATOM     10  N   UNL     1     -11.729  -3.825  12.851  0.00  0.00    +0.000 NA
ATOM     11  C   UNL     1     -11.681  -4.066  14.212  0.00  0.00    +0.000 A 
ATOM     12  N   UNL     1     -11.465  -5.219  14.819  0.00  0.00    +0.000 N 
ATOM     13  C   UNL     1     -11.580  -4.988  16.161  0.00  0.00    +0.000 A 
ATOM     14  N   UNL     1     -11.830  -3.753  16.431  0.00  0.00    +0.000 NA
ATOM     15  N   UNL     1     -11.835  -3.163  15.185  0.00  0.00    +0.000 N 
ATOM     16  C   UNL     1     -12.138  -1.760  14.995  0.00  0.00    +0.000 C 
ATOM     17  C   UNL     1     -12.417  -1.498  13.499  0.00  0.00    +0.000 C 
ATOM     18  H   UNL     1     -12.024   0.643  13.507  0.00  0.00    +0.000 HD
ATOM     19  H   UNL     1     -13.634   0.344   9.326  0.00  0.00    +0.000 HD
ATOM     20  H   UNL     1     -12.510  -0.828   7.454  0.00  0.00    +0.000 HD
ATOM     21  H   UNL     1     -10.952  -2.695   7.934  0.00  0.00    +0.000 HD
ATOM     22  H   UNL     1     -10.798  -3.663  10.216  0.00  0.00    +0.000 HD
ATOM     23  H   UNL     1     -11.300  -6.105  14.347  0.00  0.00    +0.000 HD
ATOM     24  H   UNL     1     -11.467  -5.804  16.859  0.00  0.00    +0.000 HD
ATOM     25  H   UNL     1     -13.093  -1.611  15.520  0.00  0.00    +0.000 HD
ATOM     26  H   UNL     1     -13.521  -1.482  13.450  0.00  0.00    +0.000 HD
ENDROOT
BRANCH  16  27
ATOM     27  C   UNL     1     -11.139  -0.872  15.745  0.00  0.00    +0.000 A 
ATOM     28  C   UNL     1      -9.796  -1.231  15.936  0.00  0.00    +0.000 A 
ATOM     29  C   UNL     1      -8.892  -0.347  16.521  0.00  0.00    +0.000 A 
ATOM     30  C   UNL     1      -9.350   0.875  16.985  0.00  0.00    +0.000 A 
ATOM     31  N   UNL     1     -10.654   1.177  16.878  0.00  0.00    +0.000 N 
ATOM     32  C   UNL     1     -11.546   0.359  16.287  0.00  0.00    +0.000 A 
ATOM     33  H   UNL     1      -9.409  -2.192  15.596  0.00  0.00    +0.000 HD
ATOM     34  H   UNL     1      -7.838  -0.608  16.603  0.00  0.00    +0.000 HD
ATOM     35  H   UNL     1      -8.704   1.616  17.445  0.00  0.00    +0.000 HD
ATOM     36  H   UNL     1     -10.970   2.075  17.259  0.00  0.00    +0.000 HD
ATOM     37  H   UNL     1     -12.567   0.728  16.255  0.00  0.00    +0.000 HD
ENDBRANCH  16  27
BRANCH   1  41
ATOM     38  C   UNL     1      -7.695  -0.137  11.461  0.00  0.00    +0.000 A 
ATOM     39  C   UNL     1      -8.141  -1.108  12.356  0.00  0.00    +0.000 A 
ATOM     40  C   UNL     1      -9.489  -1.148  12.776  0.00  0.00    +0.000 A 
ATOM     41  C   UNL     1     -10.421  -0.183  12.354  0.00  0.00    +0.000 A 
ATOM     42  C   UNL     1      -9.912   0.841  11.545  0.00  0.00    +0.000 A 
ATOM     43  C   UNL     1      -8.597   0.849  11.075  0.00  0.00    +0.000 A 
ATOM     44  H   UNL     1      -7.459  -1.856  12.754  0.00  0.00    +0.000 HD
ATOM     45  H   UNL     1      -9.776  -1.919  13.491  0.00  0.00    +0.000 HD
ATOM     46  H   UNL     1     -10.490   1.713  11.284  0.00  0.00    +0.000 HD
ATOM     47  H   UNL     1      -8.275   1.652  10.412  0.00  0.00    +0.000 HD
BRANCH  38  48
ATOM     48  S   UNL     1      -6.072  -0.006  10.736  0.00  0.00    +0.000 S 
BRANCH  48  49
ATOM     49  C   UNL     1      -6.347  -0.322   8.976  0.00  0.00    +0.000 C 
ATOM     50  H   UNL     1      -7.254  -0.923   8.870  0.00  0.00    +0.000 HD
ATOM     51  H   UNL     1      -5.514  -0.884   8.548  0.00  0.00    +0.000 HD
ATOM     52  H   UNL     1      -6.489   0.618   8.437  0.00  0.00    +0.000 HD
ENDBRANCH  48  49
ENDBRANCH  38  48
ENDBRANCH   1  41
TORSDOF 4
ENDMDL
MODEL 9
REMARK VINA RESULT:    -5.615      3.379      5.337
REMARK INTER + INTRA:          -7.382
REMARK INTER:                  -6.870
REMARK INTRA:                  -0.512
REMARK UNBOUND:                -0.619
REMARK  Name = 
REMARK  4 active torsions:
REMARK  status: ('A' for Active; 'I' for Inactive)
REMARK    1  A    between atoms: C_1  and  S_2
REMARK    2  A    between atoms: S_2  and  C_3
REMARK    3  A    between atoms: C_6  and  C_7
REMARK    4  A    between atoms: C_22  and  C_23
REMARK                            x       y       z     vdW  Elec       q    Type
REMARK                         _______ _______ _______ _____ _____    ______ ____
ROOT
ATOM      1  C   UNL     1     -10.140  -0.799  14.207  0.00  0.00    +0.000 C 
ATOM      2  O   UNL     1      -9.830  -0.722  12.788  0.00  0.00    +0.000 OA
ATOM      3  C   UNL     1     -10.872  -1.229  12.031  0.00  0.00    +0.000 A 
ATOM      4  C   UNL     1     -10.493  -1.860  10.857  0.00  0.00    +0.000 A 
ATOM      5  C   UNL     1     -11.305  -2.880  10.382  0.00  0.00    +0.000 A 
ATOM      6  C   UNL     1     -12.487  -3.205  11.061  0.00  0.00    +0.000 A 
ATOM      7  C   UNL     1     -12.955  -2.409  12.117  0.00  0.00    +0.000 A 
ATOM      8  C   UNL     1     -12.166  -1.357  12.564  0.00  0.00    +0.000 A 
ATOM      9  C   UNL     1     -12.507  -0.485  13.742  0.00  0.00    +0.000 C 
ATOM     10  N   UNL     1     -13.729  -0.338  14.147  0.00  0.00    +0.000 NA
ATOM     11  C   UNL     1     -13.893   0.486  15.244  0.00  0.00    +0.000 A 
ATOM     12  N   UNL     1     -15.027   0.870  15.801  0.00  0.00    +0.000 N 
ATOM     13  C   UNL     1     -14.702   1.735  16.808  0.00  0.00    +0.000 A 
ATOM     14  N   UNL     1     -13.429   1.895  16.931  0.00  0.00    +0.000 NA
ATOM     15  N   UNL     1     -12.921   1.049  15.968  0.00  0.00    +0.000 N 
ATOM     16  C   UNL     1     -11.501   0.945  15.701  0.00  0.00    +0.000 C 
ATOM     17  C   UNL     1     -11.289   0.215  14.357  0.00  0.00    +0.000 C 
ATOM     18  H   UNL     1      -9.239  -0.432  14.706  0.00  0.00    +0.000 HD
ATOM     19  H   UNL     1      -9.530  -1.657  10.396  0.00  0.00    +0.000 HD
ATOM     20  H   UNL     1     -10.974  -3.476   9.534  0.00  0.00    +0.000 HD
ATOM     21  H   UNL     1     -13.031  -4.101  10.768  0.00  0.00    +0.000 HD
ATOM     22  H   UNL     1     -13.873  -2.685  12.626  0.00  0.00    +0.000 HD
ATOM     23  H   UNL     1     -15.955   0.599  15.483  0.00  0.00    +0.000 HD
ATOM     24  H   UNL     1     -15.482   2.200  17.392  0.00  0.00    +0.000 HD
ATOM     25  H   UNL     1     -11.173   1.984  15.547  0.00  0.00    +0.000 HD
ATOM     26  H   UNL     1     -11.102   1.044  13.650  0.00  0.00    +0.000 HD
ENDROOT
BRANCH  16  27
ATOM     27  C   UNL     1     -10.738   0.477  16.946  0.00  0.00    +0.000 A 
ATOM     28  C   UNL     1     -11.305  -0.371  17.911  0.00  0.00    +0.000 A 
ATOM     29  C   UNL     1     -10.543  -0.866  18.967  0.00  0.00    +0.000 A 
ATOM     30  C   UNL     1      -9.227  -0.455  19.099  0.00  0.00    +0.000 A 
ATOM     31  N   UNL     1      -8.717   0.424  18.221  0.00  0.00    +0.000 N 
ATOM     32  C   UNL     1      -9.417   0.895  17.171  0.00  0.00    +0.000 A 
ATOM     33  H   UNL     1     -12.343  -0.699  17.844  0.00  0.00    +0.000 HD
ATOM     34  H   UNL     1     -10.973  -1.576  19.673  0.00  0.00    +0.000 HD
ATOM     35  H   UNL     1      -8.572  -0.804  19.891  0.00  0.00    +0.000 HD
ATOM     36  H   UNL     1      -7.751   0.735  18.363  0.00  0.00    +0.000 HD
ATOM     37  H   UNL     1      -8.883   1.590  16.530  0.00  0.00    +0.000 HD
ENDBRANCH  16  27
BRANCH   1  41
ATOM     38  C   UNL     1     -10.805  -4.917  15.677  0.00  0.00    +0.000 A 
ATOM     39  C   UNL     1      -9.944  -4.665  14.610  0.00  0.00    +0.000 A 
ATOM     40  C   UNL     1      -9.712  -3.348  14.155  0.00  0.00    +0.000 A 
ATOM     41  C   UNL     1     -10.375  -2.246  14.722  0.00  0.00    +0.000 A 
ATOM     42  C   UNL     1     -11.315  -2.546  15.716  0.00  0.00    +0.000 A 
ATOM     43  C   UNL     1     -11.501  -3.838  16.213  0.00  0.00    +0.000 A 
ATOM     44  H   UNL     1      -9.436  -5.481  14.100  0.00  0.00    +0.000 HD
ATOM     45  H   UNL     1      -9.043  -3.216  13.304  0.00  0.00    +0.000 HD
ATOM     46  H   UNL     1     -11.990  -1.807  16.116  0.00  0.00    +0.000 HD
ATOM     47  H   UNL     1     -12.218  -3.999  17.018  0.00  0.00    +0.000 HD
BRANCH  38  48
ATOM     48  S   UNL     1     -11.126  -6.488  16.456  0.00  0.00    +0.000 S 
BRANCH  48  49
ATOM     49  C   UNL     1     -10.470  -6.293  18.131  0.00  0.00    +0.000 C 
ATOM     50  H   UNL     1     -11.289  -6.430  18.842  0.00  0.00    +0.000 HD
ATOM     51  H   UNL     1     -10.058  -5.291  18.273  0.00  0.00    +0.000 HD
ATOM     52  H   UNL     1      -9.707  -7.050  18.332  0.00  0.00    +0.000 HD
ENDBRANCH  48  49
ENDBRANCH  38  48
ENDBRANCH   1  41
TORSDOF 4
ENDMDL
