REMARK  Name = 
REMARK  4 active torsions:
REMARK  status: ('A' for Active; 'I' for Inactive)
REMARK    1  A    between atoms: C_2  and  C_4
REMARK    2  A    between atoms: N_8  and  C_9
REMARK    3  A    between atoms: C_11  and  C_12
REMARK    4  A    between atoms: C_22  and  C_23
REMARK                            x       y       z     vdW  Elec       q    Type
REMARK                         _______ _______ _______ _____ _____    ______ ____
ROOT
ATOM      1  C   UNL     1      -0.629   0.282   0.015  0.00  0.00    +0.000 A 
ATOM      2  N   UNL     1      -1.775   0.930  -0.372  0.00  0.00    +0.000 NA
ATOM      3  C   UNL     1      -2.190   2.066   0.196  0.00  0.00    +0.000 A 
ATOM      4  N   UNL     1      -1.577   2.659   1.200  0.00  0.00    +0.000 NA
ATOM      5  C   UNL     1      -0.446   2.047   1.590  0.00  0.00    +0.000 A 
ATOM      6  S   UNL     1       0.353   2.746   2.922  0.00  0.00    +0.000 S 
ATOM      7  C   UNL     1       1.600   1.617   2.837  0.00  0.00    +0.000 A 
ATOM      8  C   UNL     1       1.462   0.699   1.811  0.00  0.00    +0.000 A 
ATOM      9  C   UNL     1       0.160   0.901   1.068  0.00  0.00    +0.000 A 
ATOM     10  H   UNL     1       2.402   1.687   3.557  0.00  0.00    +0.000 HD
ENDROOT
BRANCH   1  15
ATOM     11  C   UNL     1       0.899  -1.464  -0.835  0.00  0.00    +0.000 C 
ATOM     12  C   UNL     1       0.989  -1.767  -2.325  0.00  0.00    +0.000 C 
ATOM     13  C   UNL     1      -0.407  -2.258  -2.621  0.00  0.00    +0.000 C 
ATOM     14  C   UNL     1      -1.266  -1.261  -1.830  0.00  0.00    +0.000 C 
ATOM     15  N   UNL     1      -0.425  -0.900  -0.675  0.00  0.00    +0.000 N 
ATOM     16  H   UNL     1       1.618  -0.696  -0.670  0.00  0.00    +0.000 HD
ATOM     17  H   UNL     1       1.782  -2.462  -2.604  0.00  0.00    +0.000 HD
ATOM     18  H   UNL     1       1.173  -0.832  -2.875  0.00  0.00    +0.000 HD
ATOM     19  H   UNL     1      -0.531  -3.275  -2.234  0.00  0.00    +0.000 HD
ATOM     20  H   UNL     1      -0.630  -2.264  -3.691  0.00  0.00    +0.000 HD
ATOM     21  H   UNL     1      -2.210  -1.722  -1.520  0.00  0.00    +0.000 HD
ATOM     22  H   UNL     1      -1.472  -0.395  -2.470  0.00  0.00    +0.000 HD
BRANCH  11  24
ATOM     23  N   UNL     1       1.839  -3.708  -0.277  0.00  0.00    +0.000 N 
ATOM     24  C   UNL     1       1.062  -2.665   0.137  0.00  0.00    +0.000 C 
ATOM     25  O   UNL     1       0.573  -2.722   1.263  0.00  0.00    +0.000 OA
ATOM     26  H   UNL     1       2.032  -4.400   0.438  0.00  0.00    +0.000 HD
ATOM     27  H   UNL     1       2.456  -3.662  -1.070  0.00  0.00    +0.000 HD
ENDBRANCH  11  24
ENDBRANCH   1  15
BRANCH   8  28
ATOM     28  C   UNL     1       2.584  -0.267   1.712  0.00  0.00    +0.000 A 
ATOM     29  C   UNL     1       2.939  -1.059   2.818  0.00  0.00    +0.000 A 
ATOM     30  C   UNL     1       3.927  -2.045   2.717  0.00  0.00    +0.000 A 
ATOM     31  C   UNL     1       4.544  -2.288   1.495  0.00  0.00    +0.000 A 
ATOM     32  C   UNL     1       4.289  -1.438   0.423  0.00  0.00    +0.000 A 
ATOM     33  C   UNL     1       3.393  -0.370   0.572  0.00  0.00    +0.000 A 
ATOM     34  H   UNL     1       2.435  -0.929   3.774  0.00  0.00    +0.000 HD
ATOM     35  H   UNL     1       4.182  -2.646   3.586  0.00  0.00    +0.000 HD
ATOM     36  H   UNL     1       5.229  -3.125   1.386  0.00  0.00    +0.000 HD
ATOM     37  H   UNL     1       4.763  -1.624  -0.538  0.00  0.00    +0.000 HD
ATOM     38  H   UNL     1       3.265   0.319  -0.261  0.00  0.00    +0.000 HD
ENDBRANCH   8  28
BRANCH   3  39
ATOM     39  C   UNL     1      -3.420   2.726  -0.344  0.00  0.00    +0.000 A 
ATOM     40  C   UNL     1      -3.942   3.895   0.226  0.00  0.00    +0.000 A 
ATOM     41  C   UNL     1      -5.083   4.492  -0.314  0.00  0.00    +0.000 A 
ATOM     42  C   UNL     1      -5.692   3.911  -1.414  0.00  0.00    +0.000 A 
ATOM     43  C   UNL     1      -5.130   2.758  -1.936  0.00  0.00    +0.000 A 
ATOM     44  N   UNL     1      -4.023   2.163  -1.433  0.00  0.00    +0.000 NA
ATOM     45  H   UNL     1      -3.461   4.351   1.094  0.00  0.00    +0.000 HD
ATOM     46  H   UNL     1      -5.491   5.393   0.125  0.00  0.00    +0.000 HD
ATOM     47  H   UNL     1      -6.581   4.342  -1.861  0.00  0.00    +0.000 HD
ATOM     48  H   UNL     1      -5.565   2.261  -2.796  0.00  0.00    +0.000 HD
ENDBRANCH   3  39
TORSDOF 4
