MODEL 1
REMARK VINA RESULT:   -12.594      0.000      0.000
REMARK INTER + INTRA:         -15.016
REMARK INTER:                 -15.540
REMARK INTRA:                   0.523
REMARK UNBOUND:                 0.523
REMARK  Name = 
REMARK  4 active torsions:
REMARK  status: ('A' for Active; 'I' for Inactive)
REMARK    1  A    between atoms: C_2  and  C_14
REMARK    2  A    between atoms: N_3  and  C_4
REMARK    3  A    between atoms: C_8  and  C_9
REMARK    4  A    between atoms: N_20  and  C_21
REMARK                            x       y       z     vdW  Elec       q    Type
REMARK                         _______ _______ _______ _____ _____    ______ ____
ROOT
ATOM      1  C   UNL     1      -9.042  -5.183  19.126  0.00  0.00    +0.000 A 
ATOM      2  C   UNL     1      -8.217  -5.951  19.955  0.00  0.00    +0.000 A 
ATOM      3  C   UNL     1      -8.107  -7.324  19.745  0.00  0.00    +0.000 A 
ATOM      4  C   UNL     1      -8.767  -7.912  18.663  0.00  0.00    +0.000 A 
ATOM      5  C   UNL     1      -8.627  -9.358  18.394  0.00  0.00    +0.000 A 
ATOM      6  O   UNL     1      -8.090 -10.050  19.251  0.00  0.00    +0.000 OA
ATOM      7  N   UNL     1      -9.169  -9.823  17.185  0.00  0.00    +0.000 N 
ATOM      8  C   UNL     1      -9.901  -9.026  16.309  0.00  0.00    +0.000 A 
ATOM      9  O   UNL     1     -10.366  -9.389  15.223  0.00  0.00    +0.000 OA
ATOM     10  N   UNL     1     -10.092  -7.719  16.669  0.00  0.00    +0.000 N 
ATOM     11  C   UNL     1      -9.531  -7.136  17.800  0.00  0.00    +0.000 A 
ATOM     12  C   UNL     1      -9.705  -5.775  18.041  0.00  0.00    +0.000 A 
ATOM     13  H   UNL     1      -7.666  -5.478  20.768  0.00  0.00    +0.000 HD
ATOM     14  H   UNL     1      -7.489  -7.922  20.409  0.00  0.00    +0.000 HD
ATOM     15  H   UNL     1     -10.606  -7.167  15.994  0.00  0.00    +0.000 HD
ATOM     16  H   UNL     1     -10.308  -5.172  17.368  0.00  0.00    +0.000 HD
ENDROOT
BRANCH   7  17
ATOM     17  C   UNL     1      -9.005 -11.206  16.873  0.00  0.00    +0.000 A 
ATOM     18  C   UNL     1      -9.105 -12.176  17.879  0.00  0.00    +0.000 A 
ATOM     19  C   UNL     1      -8.873 -13.522  17.586  0.00  0.00    +0.000 A 
ATOM     20  C   UNL     1      -8.566 -13.912  16.284  0.00  0.00    +0.000 A 
ATOM     21  C   UNL     1      -8.504 -12.957  15.269  0.00  0.00    +0.000 A 
ATOM     22  C   UNL     1      -8.717 -11.608  15.562  0.00  0.00    +0.000 A 
ATOM     23  H   UNL     1      -9.328 -11.891  18.903  0.00  0.00    +0.000 HD
ATOM     24  H   UNL     1      -8.931 -14.265  18.378  0.00  0.00    +0.000 HD
ATOM     25  H   UNL     1      -8.373 -14.957  16.060  0.00  0.00    +0.000 HD
ATOM     26  H   UNL     1      -8.276 -13.261  14.250  0.00  0.00    +0.000 HD
ATOM     27  H   UNL     1      -8.671 -10.880  14.755  0.00  0.00    +0.000 HD
ENDBRANCH   7  17
BRANCH   1  29
ATOM     28  O   UNL     1      -9.366  -2.934  18.523  0.00  0.00    +0.000 OA
ATOM     29  C   UNL     1      -9.171  -3.735  19.423  0.00  0.00    +0.000 C 
ATOM     30  N   UNL     1      -9.023  -3.397  20.749  0.00  0.00    +0.000 N 
ATOM     31  H   UNL     1      -8.734  -4.106  21.404  0.00  0.00    +0.000 HD
BRANCH  30  32
ATOM     32  C   UNL     1      -9.054  -2.013  21.200  0.00  0.00    +0.000 C 
ATOM     33  C   UNL     1     -10.438  -1.413  20.952  0.00  0.00    +0.000 C 
ATOM     34  C   UNL     1     -11.494  -1.995  21.885  0.00  0.00    +0.000 C 
ATOM     35  C   UNL     1     -11.095  -1.821  23.343  0.00  0.00    +0.000 C 
ATOM     36  C   UNL     1      -9.712  -2.414  23.654  0.00  0.00    +0.000 C 
ATOM     37  C   UNL     1      -8.646  -1.896  22.672  0.00  0.00    +0.000 C 
ATOM     38  H   UNL     1      -8.327  -1.457  20.598  0.00  0.00    +0.000 HD
ATOM     39  H   UNL     1     -10.741  -1.579  19.910  0.00  0.00    +0.000 HD
ATOM     40  H   UNL     1     -10.388  -0.327  21.102  0.00  0.00    +0.000 HD
ATOM     41  H   UNL     1     -11.645  -3.060  21.672  0.00  0.00    +0.000 HD
ATOM     42  H   UNL     1     -12.456  -1.502  21.705  0.00  0.00    +0.000 HD
ATOM     43  H   UNL     1     -11.851  -2.295  23.980  0.00  0.00    +0.000 HD
ATOM     44  H   UNL     1     -11.101  -0.750  23.588  0.00  0.00    +0.000 HD
ATOM     45  H   UNL     1      -9.783  -3.505  23.540  0.00  0.00    +0.000 HD
ATOM     46  H   UNL     1      -7.698  -2.422  22.851  0.00  0.00    +0.000 HD
ATOM     47  H   UNL     1      -8.458  -0.834  22.882  0.00  0.00    +0.000 HD
BRANCH  36  48
ATOM     48  C   UNL     1      -9.310  -2.114  25.099  0.00  0.00    +0.000 C 
ATOM     49  F   UNL     1     -10.354  -2.248  25.949  0.00  0.00    +0.000 F 
ATOM     50  F   UNL     1      -8.344  -2.961  25.516  0.00  0.00    +0.000 F 
ATOM     51  F   UNL     1      -8.838  -0.858  25.245  0.00  0.00    +0.000 F 
ENDBRANCH  36  48
ENDBRANCH  30  32
ENDBRANCH   1  29
TORSDOF 4
ENDMDL
MODEL 2
REMARK VINA RESULT:   -11.794      0.933      2.002
REMARK INTER + INTRA:         -14.029
REMARK INTER:                 -15.036
REMARK INTRA:                   1.007
REMARK UNBOUND:                 0.523
REMARK  Name = 
REMARK  4 active torsions:
REMARK  status: ('A' for Active; 'I' for Inactive)
REMARK    1  A    between atoms: C_2  and  C_14
REMARK    2  A    between atoms: N_3  and  C_4
REMARK    3  A    between atoms: C_8  and  C_9
REMARK    4  A    between atoms: N_20  and  C_21
REMARK                            x       y       z     vdW  Elec       q    Type
REMARK                         _______ _______ _______ _____ _____    ______ ____
ROOT
ATOM      1  C   UNL     1      -9.528  -4.481  18.564  0.00  0.00    +0.000 A 
ATOM      2  C   UNL     1     -10.030  -4.741  17.284  0.00  0.00    +0.000 A 
ATOM      3  C   UNL     1      -9.913  -6.018  16.738  0.00  0.00    +0.000 A 
ATOM      4  C   UNL     1      -9.357  -7.047  17.502  0.00  0.00    +0.000 A 
ATOM      5  C   UNL     1      -9.265  -8.419  16.961  0.00  0.00    +0.000 A 
ATOM      6  O   UNL     1      -9.499  -8.580  15.770  0.00  0.00    +0.000 OA
ATOM      7  N   UNL     1      -8.869  -9.419  17.863  0.00  0.00    +0.000 N 
ATOM      8  C   UNL     1      -8.470  -9.167  19.173  0.00  0.00    +0.000 A 
ATOM      9  O   UNL     1      -8.146 -10.021  20.004  0.00  0.00    +0.000 OA
ATOM     10  N   UNL     1      -8.470  -7.860  19.581  0.00  0.00    +0.000 N 
ATOM     11  C   UNL     1      -8.920  -6.802  18.799  0.00  0.00    +0.000 A 
ATOM     12  C   UNL     1      -8.968  -5.515  19.329  0.00  0.00    +0.000 A 
ATOM     13  H   UNL     1     -10.507  -3.946  16.711  0.00  0.00    +0.000 HD
ATOM     14  H   UNL     1     -10.277  -6.209  15.732  0.00  0.00    +0.000 HD
ATOM     15  H   UNL     1      -8.199  -7.721  20.546  0.00  0.00    +0.000 HD
ATOM     16  H   UNL     1      -8.621  -5.326  20.340  0.00  0.00    +0.000 HD
ENDROOT
BRANCH   7  17
ATOM     17  C   UNL     1      -8.820 -10.763  17.383  0.00  0.00    +0.000 A 
ATOM     18  C   UNL     1      -8.799 -11.836  18.284  0.00  0.00    +0.000 A 
ATOM     19  C   UNL     1      -8.679 -13.147  17.816  0.00  0.00    +0.000 A 
ATOM     20  C   UNL     1      -8.605 -13.397  16.447  0.00  0.00    +0.000 A 
ATOM     21  C   UNL     1      -8.665 -12.337  15.542  0.00  0.00    +0.000 A 
ATOM     22  C   UNL     1      -8.767 -11.024  16.007  0.00  0.00    +0.000 A 
ATOM     23  H   UNL     1      -8.840 -11.662  19.354  0.00  0.00    +0.000 HD
ATOM     24  H   UNL     1      -8.641 -13.972  18.523  0.00  0.00    +0.000 HD
ATOM     25  H   UNL     1      -8.498 -14.415  16.084  0.00  0.00    +0.000 HD
ATOM     26  H   UNL     1      -8.619 -12.531  14.474  0.00  0.00    +0.000 HD
ATOM     27  H   UNL     1      -8.819 -10.212  15.286  0.00  0.00    +0.000 HD
ENDBRANCH   7  17
BRANCH   1  29
ATOM     28  O   UNL     1      -9.848  -2.165  18.320  0.00  0.00    +0.000 OA
ATOM     29  C   UNL     1      -9.625  -3.094  19.080  0.00  0.00    +0.000 C 
ATOM     30  N   UNL     1      -9.415  -2.960  20.434  0.00  0.00    +0.000 N 
ATOM     31  H   UNL     1      -9.108  -3.762  20.962  0.00  0.00    +0.000 HD
BRANCH  30  32
ATOM     32  C   UNL     1      -9.409  -1.660  21.088  0.00  0.00    +0.000 C 
ATOM     33  C   UNL     1     -10.813  -1.055  21.067  0.00  0.00    +0.000 C 
ATOM     34  C   UNL     1     -11.770  -1.790  21.999  0.00  0.00    +0.000 C 
ATOM     35  C   UNL     1     -11.231  -1.827  23.422  0.00  0.00    +0.000 C 
ATOM     36  C   UNL     1      -9.822  -2.434  23.506  0.00  0.00    +0.000 C 
ATOM     37  C   UNL     1      -8.859  -1.755  22.515  0.00  0.00    +0.000 C 
ATOM     38  H   UNL     1      -8.746  -1.007  20.510  0.00  0.00    +0.000 HD
ATOM     39  H   UNL     1     -11.215  -1.070  20.046  0.00  0.00    +0.000 HD
ATOM     40  H   UNL     1     -10.753  -0.004  21.373  0.00  0.00    +0.000 HD
ATOM     41  H   UNL     1     -11.936  -2.814  21.645  0.00  0.00    +0.000 HD
ATOM     42  H   UNL     1     -12.746  -1.294  21.989  0.00  0.00    +0.000 HD
ATOM     43  H   UNL     1     -11.919  -2.406  24.050  0.00  0.00    +0.000 HD
ATOM     44  H   UNL     1     -11.218  -0.805  23.824  0.00  0.00    +0.000 HD
ATOM     45  H   UNL     1      -9.899  -3.497  23.237  0.00  0.00    +0.000 HD
ATOM     46  H   UNL     1      -7.896  -2.284  22.521  0.00  0.00    +0.000 HD
ATOM     47  H   UNL     1      -8.656  -0.733  22.863  0.00  0.00    +0.000 HD
BRANCH  36  48
ATOM     48  C   UNL     1      -9.282  -2.344  24.935  0.00  0.00    +0.000 C 
ATOM     49  F   UNL     1      -8.548  -1.224  25.125  0.00  0.00    +0.000 F 
ATOM     50  F   UNL     1     -10.293  -2.317  25.830  0.00  0.00    +0.000 F 
ATOM     51  F   UNL     1      -8.493  -3.394  25.246  0.00  0.00    +0.000 F 
ENDBRANCH  36  48
ENDBRANCH  30  32
ENDBRANCH   1  29
TORSDOF 4
ENDMDL
MODEL 3
REMARK VINA RESULT:   -11.582      1.380      2.369
REMARK INTER + INTRA:         -13.767
REMARK INTER:                 -14.532
REMARK INTRA:                   0.765
REMARK UNBOUND:                 0.523
REMARK  Name = 
REMARK  4 active torsions:
REMARK  status: ('A' for Active; 'I' for Inactive)
REMARK    1  A    between atoms: C_2  and  C_14
REMARK    2  A    between atoms: N_3  and  C_4
REMARK    3  A    between atoms: C_8  and  C_9
REMARK    4  A    between atoms: N_20  and  C_21
REMARK                            x       y       z     vdW  Elec       q    Type
REMARK                         _______ _______ _______ _____ _____    ______ ____
ROOT
ATOM      1  C   UNL     1     -10.511  -4.459  18.040  0.00  0.00    +0.000 A 
ATOM      2  C   UNL     1     -11.010  -4.849  16.793  0.00  0.00    +0.000 A 
ATOM      3  C   UNL     1     -10.741  -6.127  16.306  0.00  0.00    +0.000 A 
ATOM      4  C   UNL     1     -10.032  -7.033  17.099  0.00  0.00    +0.000 A 
ATOM      5  C   UNL     1      -9.774  -8.407  16.622  0.00  0.00    +0.000 A 
ATOM      6  O   UNL     1     -10.018  -8.660  15.449  0.00  0.00    +0.000 OA
ATOM      7  N   UNL     1      -9.224  -9.299  17.557  0.00  0.00    +0.000 N 
ATOM      8  C   UNL     1      -8.826  -8.928  18.838  0.00  0.00    +0.000 A 
ATOM      9  O   UNL     1      -8.368  -9.688  19.698  0.00  0.00    +0.000 OA
ATOM     10  N   UNL     1      -8.987  -7.612  19.183  0.00  0.00    +0.000 N 
ATOM     11  C   UNL     1      -9.595  -6.665  18.367  0.00  0.00    +0.000 A 
ATOM     12  C   UNL     1      -9.799  -5.369  18.835  0.00  0.00    +0.000 A 
ATOM     13  H   UNL     1     -11.604  -4.155  16.199  0.00  0.00    +0.000 HD
ATOM     14  H   UNL     1     -11.104  -6.416  15.323  0.00  0.00    +0.000 HD
ATOM     15  H   UNL     1      -8.710  -7.388  20.130  0.00  0.00    +0.000 HD
ATOM     16  H   UNL     1      -9.451  -5.083  19.824  0.00  0.00    +0.000 HD
ENDROOT
BRANCH   7  17
ATOM     17  C   UNL     1      -9.011 -10.647  17.141  0.00  0.00    +0.000 A 
ATOM     18  C   UNL     1      -8.868 -11.667  18.091  0.00  0.00    +0.000 A 
ATOM     19  C   UNL     1      -8.589 -12.974  17.686  0.00  0.00    +0.000 A 
ATOM     20  C   UNL     1      -8.475 -13.278  16.331  0.00  0.00    +0.000 A 
ATOM     21  C   UNL     1      -8.655 -12.276  15.377  0.00  0.00    +0.000 A 
ATOM     22  C   UNL     1      -8.916 -10.964  15.779  0.00  0.00    +0.000 A 
ATOM     23  H   UNL     1      -8.938 -11.449  19.153  0.00  0.00    +0.000 HD
ATOM     24  H   UNL     1      -8.457 -13.755  18.431  0.00  0.00    +0.000 HD
ATOM     25  H   UNL     1      -8.244 -14.292  16.017  0.00  0.00    +0.000 HD
ATOM     26  H   UNL     1      -8.577 -12.513  14.319  0.00  0.00    +0.000 HD
ATOM     27  H   UNL     1      -9.060 -10.199  15.020  0.00  0.00    +0.000 HD
ENDBRANCH   7  17
BRANCH   1  29
ATOM     28  O   UNL     1     -11.385  -2.293  17.775  0.00  0.00    +0.000 OA
ATOM     29  C   UNL     1     -10.777  -3.072  18.492  0.00  0.00    +0.000 C 
ATOM     30  N   UNL     1     -10.264  -2.753  19.729  0.00  0.00    +0.000 N 
ATOM     31  H   UNL     1      -9.663  -3.416  20.194  0.00  0.00    +0.000 HD
BRANCH  30  32
ATOM     32  C   UNL     1     -10.377  -1.415  20.290  0.00  0.00    +0.000 C 
ATOM     33  C   UNL     1     -11.677  -1.289  21.086  0.00  0.00    +0.000 C 
ATOM     34  C   UNL     1     -11.637  -2.091  22.382  0.00  0.00    +0.000 C 
ATOM     35  C   UNL     1     -10.448  -1.688  23.242  0.00  0.00    +0.000 C 
ATOM     36  C   UNL     1      -9.110  -1.802  22.495  0.00  0.00    +0.000 C 
ATOM     37  C   UNL     1      -9.157  -1.062  21.146  0.00  0.00    +0.000 C 
ATOM     38  H   UNL     1     -10.421  -0.712  19.451  0.00  0.00    +0.000 HD
ATOM     39  H   UNL     1     -12.527  -1.621  20.477  0.00  0.00    +0.000 HD
ATOM     40  H   UNL     1     -11.847  -0.232  21.326  0.00  0.00    +0.000 HD
ATOM     41  H   UNL     1     -11.584  -3.164  22.164  0.00  0.00    +0.000 HD
ATOM     42  H   UNL     1     -12.566  -1.932  22.941  0.00  0.00    +0.000 HD
ATOM     43  H   UNL     1     -10.424  -2.320  24.138  0.00  0.00    +0.000 HD
ATOM     44  H   UNL     1     -10.592  -0.655  23.586  0.00  0.00    +0.000 HD
ATOM     45  H   UNL     1      -8.929  -2.868  22.295  0.00  0.00    +0.000 HD
ATOM     46  H   UNL     1      -8.229  -1.256  20.590  0.00  0.00    +0.000 HD
ATOM     47  H   UNL     1      -9.185   0.019  21.337  0.00  0.00    +0.000 HD
BRANCH  36  48
ATOM     48  C   UNL     1      -7.963  -1.280  23.361  0.00  0.00    +0.000 C 
ATOM     49  F   UNL     1      -8.073   0.048  23.593  0.00  0.00    +0.000 F 
ATOM     50  F   UNL     1      -7.950  -1.895  24.564  0.00  0.00    +0.000 F 
ATOM     51  F   UNL     1      -6.759  -1.486  22.788  0.00  0.00    +0.000 F 
ENDBRANCH  36  48
ENDBRANCH  30  32
ENDBRANCH   1  29
TORSDOF 4
ENDMDL
MODEL 4
REMARK VINA RESULT:   -10.921      5.453      6.611
REMARK INTER + INTRA:         -12.951
REMARK INTER:                 -13.618
REMARK INTRA:                   0.667
REMARK UNBOUND:                 0.523
REMARK  Name = 
REMARK  4 active torsions:
REMARK  status: ('A' for Active; 'I' for Inactive)
REMARK    1  A    between atoms: C_2  and  C_14
REMARK    2  A    between atoms: N_3  and  C_4
REMARK    3  A    between atoms: C_8  and  C_9
REMARK    4  A    between atoms: N_20  and  C_21
REMARK                            x       y       z     vdW  Elec       q    Type
REMARK                         _______ _______ _______ _____ _____    ______ ____
ROOT
ATOM      1  C   UNL     1     -10.070  -5.176  17.242  0.00  0.00    +0.000 A 
ATOM      2  C   UNL     1      -9.445  -5.592  18.423  0.00  0.00    +0.000 A 
ATOM      3  C   UNL     1      -9.181  -6.945  18.628  0.00  0.00    +0.000 A 
ATOM      4  C   UNL     1      -9.480  -7.868  17.623  0.00  0.00    +0.000 A 
ATOM      5  C   UNL     1      -9.167  -9.301  17.801  0.00  0.00    +0.000 A 
ATOM      6  O   UNL     1      -8.832  -9.678  18.917  0.00  0.00    +0.000 OA
ATOM      7  N   UNL     1      -9.328 -10.119  16.672  0.00  0.00    +0.000 N 
ATOM      8  C   UNL     1      -9.852  -9.674  15.462  0.00  0.00    +0.000 A 
ATOM      9  O   UNL     1      -9.979 -10.354  14.438  0.00  0.00    +0.000 OA
ATOM     10  N   UNL     1     -10.229  -8.359  15.394  0.00  0.00    +0.000 N 
ATOM     11  C   UNL     1     -10.039  -7.443  16.423  0.00  0.00    +0.000 A 
ATOM     12  C   UNL     1     -10.370  -6.103  16.234  0.00  0.00    +0.000 A 
ATOM     13  H   UNL     1      -9.170  -4.862  19.183  0.00  0.00    +0.000 HD
ATOM     14  H   UNL     1      -8.724  -7.268  19.560  0.00  0.00    +0.000 HD
ATOM     15  H   UNL     1     -10.581  -8.068  14.491  0.00  0.00    +0.000 HD
ATOM     16  H   UNL     1     -10.812  -5.776  15.297  0.00  0.00    +0.000 HD
ENDROOT
BRANCH   7  17
ATOM     17  C   UNL     1      -8.984 -11.499  16.799  0.00  0.00    +0.000 A 
ATOM     18  C   UNL     1      -8.624 -12.246  15.669  0.00  0.00    +0.000 A 
ATOM     19  C   UNL     1      -8.358 -13.612  15.783  0.00  0.00    +0.000 A 
ATOM     20  C   UNL     1      -8.423 -14.236  17.027  0.00  0.00    +0.000 A 
ATOM     21  C   UNL     1      -8.742 -13.491  18.163  0.00  0.00    +0.000 A 
ATOM     22  C   UNL     1      -9.027 -12.129  18.050  0.00  0.00    +0.000 A 
ATOM     23  H   UNL     1      -8.582 -11.782  14.688  0.00  0.00    +0.000 HD
ATOM     24  H   UNL     1      -8.102 -14.188  14.897  0.00  0.00    +0.000 HD
ATOM     25  H   UNL     1      -8.229 -15.302  17.113  0.00  0.00    +0.000 HD
ATOM     26  H   UNL     1      -8.782 -13.975  19.136  0.00  0.00    +0.000 HD
ATOM     27  H   UNL     1      -9.266 -11.565  18.947  0.00  0.00    +0.000 HD
ENDBRANCH   7  17
BRANCH   1  29
ATOM     28  O   UNL     1     -10.570  -3.035  18.075  0.00  0.00    +0.000 OA
ATOM     29  C   UNL     1     -10.381  -3.733  17.091  0.00  0.00    +0.000 C 
ATOM     30  N   UNL     1     -10.464  -3.287  15.791  0.00  0.00    +0.000 N 
ATOM     31  H   UNL     1     -10.424  -3.960  15.041  0.00  0.00    +0.000 HD
BRANCH  30  32
ATOM     32  C   UNL     1     -10.827  -1.916  15.468  0.00  0.00    +0.000 C 
ATOM     33  C   UNL     1      -9.608  -1.163  14.933  0.00  0.00    +0.000 C 
ATOM     34  C   UNL     1      -9.204  -1.640  13.542  0.00  0.00    +0.000 C 
ATOM     35  C   UNL     1     -10.365  -1.531  12.565  0.00  0.00    +0.000 C 
ATOM     36  C   UNL     1     -11.618  -2.277  13.048  0.00  0.00    +0.000 C 
ATOM     37  C   UNL     1     -11.998  -1.864  14.482  0.00  0.00    +0.000 C 
ATOM     38  H   UNL     1     -11.144  -1.434  16.400  0.00  0.00    +0.000 HD
ATOM     39  H   UNL     1      -8.761  -1.280  15.620  0.00  0.00    +0.000 HD
ATOM     40  H   UNL     1      -9.841  -0.092  14.890  0.00  0.00    +0.000 HD
ATOM     41  H   UNL     1      -8.855  -2.678  13.582  0.00  0.00    +0.000 HD
ATOM     42  H   UNL     1      -8.361  -1.041  13.180  0.00  0.00    +0.000 HD
ATOM     43  H   UNL     1     -10.051  -1.929  11.592  0.00  0.00    +0.000 HD
ATOM     44  H   UNL     1     -10.602  -0.470  12.411  0.00  0.00    +0.000 HD
ATOM     45  H   UNL     1     -11.388  -3.352  13.049  0.00  0.00    +0.000 HD
ATOM     46  H   UNL     1     -12.826  -2.494  14.835  0.00  0.00    +0.000 HD
ATOM     47  H   UNL     1     -12.375  -0.833  14.464  0.00  0.00    +0.000 HD
BRANCH  36  48
ATOM     48  C   UNL     1     -12.787  -2.043  12.089  0.00  0.00    +0.000 C 
ATOM     49  F   UNL     1     -13.764  -1.301  12.658  0.00  0.00    +0.000 F 
ATOM     50  F   UNL     1     -12.377  -1.382  10.983  0.00  0.00    +0.000 F 
ATOM     51  F   UNL     1     -13.350  -3.200  11.683  0.00  0.00    +0.000 F 
ENDBRANCH  36  48
ENDBRANCH  30  32
ENDBRANCH   1  29
TORSDOF 4
ENDMDL
MODEL 5
REMARK VINA RESULT:   -10.781      4.727      5.674
REMARK INTER + INTRA:         -12.779
REMARK INTER:                 -13.053
REMARK INTRA:                   0.274
REMARK UNBOUND:                 0.523
REMARK  Name = 
REMARK  4 active torsions:
REMARK  status: ('A' for Active; 'I' for Inactive)
REMARK    1  A    between atoms: C_2  and  C_14
REMARK    2  A    between atoms: N_3  and  C_4
REMARK    3  A    between atoms: C_8  and  C_9
REMARK    4  A    between atoms: N_20  and  C_21
REMARK                            x       y       z     vdW  Elec       q    Type
REMARK                         _______ _______ _______ _____ _____    ______ ____
ROOT
ATOM      1  C   UNL     1      -9.755  -4.945  18.164  0.00  0.00    +0.000 A 
ATOM      2  C   UNL     1      -8.929  -5.523  19.133  0.00  0.00    +0.000 A 
ATOM      3  C   UNL     1      -8.674  -6.893  19.100  0.00  0.00    +0.000 A 
ATOM      4  C   UNL     1      -9.190  -7.667  18.057  0.00  0.00    +0.000 A 
ATOM      5  C   UNL     1      -8.894  -9.112  17.976  0.00  0.00    +0.000 A 
ATOM      6  O   UNL     1      -8.363  -9.642  18.944  0.00  0.00    +0.000 OA
ATOM      7  N   UNL     1      -9.295  -9.765  16.800  0.00  0.00    +0.000 N 
ATOM      8  C   UNL     1     -10.028  -9.154  15.786  0.00  0.00    +0.000 A 
ATOM      9  O   UNL     1     -10.371  -9.685  14.725  0.00  0.00    +0.000 OA
ATOM     10  N   UNL     1     -10.369  -7.840  15.971  0.00  0.00    +0.000 N 
ATOM     11  C   UNL     1      -9.955  -7.077  17.057  0.00  0.00    +0.000 A 
ATOM     12  C   UNL     1     -10.274  -5.722  17.118  0.00  0.00    +0.000 A 
ATOM     13  H   UNL     1      -8.489  -4.907  19.917  0.00  0.00    +0.000 HD
ATOM     14  H   UNL     1      -8.056  -7.345  19.872  0.00  0.00    +0.000 HD
ATOM     15  H   UNL     1     -10.878  -7.426  15.201  0.00  0.00    +0.000 HD
ATOM     16  H   UNL     1     -10.876  -5.266  16.338  0.00  0.00    +0.000 HD
ENDROOT
BRANCH   7  17
ATOM     17  C   UNL     1      -8.978 -11.151  16.670  0.00  0.00    +0.000 A 
ATOM     18  C   UNL     1      -8.581 -11.674  15.432  0.00  0.00    +0.000 A 
ATOM     19  C   UNL     1      -8.341 -13.042  15.290  0.00  0.00    +0.000 A 
ATOM     20  C   UNL     1      -8.470 -13.894  16.386  0.00  0.00    +0.000 A 
ATOM     21  C   UNL     1      -8.826 -13.375  17.631  0.00  0.00    +0.000 A 
ATOM     22  C   UNL     1      -9.085 -12.010  17.773  0.00  0.00    +0.000 A 
ATOM     23  H   UNL     1      -8.489 -11.031  14.563  0.00  0.00    +0.000 HD
ATOM     24  H   UNL     1      -8.054 -13.443  14.320  0.00  0.00    +0.000 HD
ATOM     25  H   UNL     1      -8.296 -14.960  16.271  0.00  0.00    +0.000 HD
ATOM     26  H   UNL     1      -8.916 -14.036  18.489  0.00  0.00    +0.000 HD
ATOM     27  H   UNL     1      -9.355 -11.624  18.752  0.00  0.00    +0.000 HD
ENDBRANCH   7  17
BRANCH   1  29
ATOM     28  O   UNL     1     -10.330  -2.999  19.350  0.00  0.00    +0.000 OA
ATOM     29  C   UNL     1     -10.042  -3.494  18.272  0.00  0.00    +0.000 C 
ATOM     30  N   UNL     1      -9.988  -2.798  17.085  0.00  0.00    +0.000 N 
ATOM     31  H   UNL     1      -9.872  -3.310  16.225  0.00  0.00    +0.000 HD
BRANCH  30  32
ATOM     32  C   UNL     1     -10.310  -1.381  17.007  0.00  0.00    +0.000 C 
ATOM     33  C   UNL     1      -9.100  -0.597  16.497  0.00  0.00    +0.000 C 
ATOM     34  C   UNL     1      -8.821  -0.864  15.021  0.00  0.00    +0.000 C 
ATOM     35  C   UNL     1     -10.045  -0.563  14.168  0.00  0.00    +0.000 C 
ATOM     36  C   UNL     1     -11.293  -1.331  14.631  0.00  0.00    +0.000 C 
ATOM     37  C   UNL     1     -11.547  -1.135  16.136  0.00  0.00    +0.000 C 
ATOM     38  H   UNL     1     -10.534  -1.040  18.023  0.00  0.00    +0.000 HD
ATOM     39  H   UNL     1      -8.210  -0.849  17.087  0.00  0.00    +0.000 HD
ATOM     40  H   UNL     1      -9.285   0.475  16.637  0.00  0.00    +0.000 HD
ATOM     41  H   UNL     1      -8.520  -1.907  14.874  0.00  0.00    +0.000 HD
ATOM     42  H   UNL     1      -7.980  -0.246  14.689  0.00  0.00    +0.000 HD
ATOM     43  H   UNL     1      -9.823  -0.815  13.124  0.00  0.00    +0.000 HD
ATOM     44  H   UNL     1     -10.243   0.517  14.199  0.00  0.00    +0.000 HD
ATOM     45  H   UNL     1     -11.114  -2.401  14.448  0.00  0.00    +0.000 HD
ATOM     46  H   UNL     1     -12.374  -1.783  16.455  0.00  0.00    +0.000 HD
ATOM     47  H   UNL     1     -11.875  -0.102  16.308  0.00  0.00    +0.000 HD
BRANCH  36  48
ATOM     48  C   UNL     1     -12.517  -0.910  13.815  0.00  0.00    +0.000 C 
ATOM     49  F   UNL     1     -12.888  -1.868  12.936  0.00  0.00    +0.000 F 
ATOM     50  F   UNL     1     -13.575  -0.677  14.622  0.00  0.00    +0.000 F 
ATOM     51  F   UNL     1     -12.292   0.216  13.106  0.00  0.00    +0.000 F 
ENDBRANCH  36  48
ENDBRANCH  30  32
ENDBRANCH   1  29
TORSDOF 4
ENDMDL
MODEL 6
REMARK VINA RESULT:   -10.521      4.461      5.604
REMARK INTER + INTRA:         -12.458
REMARK INTER:                 -12.872
REMARK INTRA:                   0.414
REMARK UNBOUND:                 0.523
REMARK  Name = 
REMARK  4 active torsions:
REMARK  status: ('A' for Active; 'I' for Inactive)
REMARK    1  A    between atoms: C_2  and  C_14
REMARK    2  A    between atoms: N_3  and  C_4
REMARK    3  A    between atoms: C_8  and  C_9
REMARK    4  A    between atoms: N_20  and  C_21
REMARK                            x       y       z     vdW  Elec       q    Type
REMARK                         _______ _______ _______ _____ _____    ______ ____
ROOT
ATOM      1  C   UNL     1     -10.560  -5.345  17.800  0.00  0.00    +0.000 A 
ATOM      2  C   UNL     1     -11.131  -5.819  16.614  0.00  0.00    +0.000 A 
ATOM      3  C   UNL     1     -10.850  -7.112  16.178  0.00  0.00    +0.000 A 
ATOM      4  C   UNL     1     -10.055  -7.950  16.964  0.00  0.00    +0.000 A 
ATOM      5  C   UNL     1      -9.782  -9.339  16.543  0.00  0.00    +0.000 A 
ATOM      6  O   UNL     1     -10.098  -9.664  15.405  0.00  0.00    +0.000 OA
ATOM      7  N   UNL     1      -9.134 -10.159  17.481  0.00  0.00    +0.000 N 
ATOM      8  C   UNL     1      -8.660  -9.705  18.709  0.00  0.00    +0.000 A 
ATOM      9  O   UNL     1      -8.116 -10.401  19.572  0.00  0.00    +0.000 OA
ATOM     10  N   UNL     1      -8.845  -8.379  18.994  0.00  0.00    +0.000 N 
ATOM     11  C   UNL     1      -9.543  -7.499  18.175  0.00  0.00    +0.000 A 
ATOM     12  C   UNL     1      -9.760  -6.186  18.588  0.00  0.00    +0.000 A 
ATOM     13  H   UNL     1     -11.790  -5.178  16.030  0.00  0.00    +0.000 HD
ATOM     14  H   UNL     1     -11.271  -7.467  15.241  0.00  0.00    +0.000 HD
ATOM     15  H   UNL     1      -8.510  -8.094  19.906  0.00  0.00    +0.000 HD
ATOM     16  H   UNL     1      -9.354  -5.835  19.532  0.00  0.00    +0.000 HD
ENDROOT
BRANCH   7  17
ATOM     17  C   UNL     1      -8.903 -11.521  17.122  0.00  0.00    +0.000 A 
ATOM     18  C   UNL     1      -8.589 -11.862  15.800  0.00  0.00    +0.000 A 
ATOM     19  C   UNL     1      -8.433 -13.202  15.435  0.00  0.00    +0.000 A 
ATOM     20  C   UNL     1      -8.564 -14.207  16.392  0.00  0.00    +0.000 A 
ATOM     21  C   UNL     1      -8.836 -13.873  17.718  0.00  0.00    +0.000 A 
ATOM     22  C   UNL     1      -9.011 -12.536  18.083  0.00  0.00    +0.000 A 
ATOM     23  H   UNL     1      -8.498 -11.096  15.037  0.00  0.00    +0.000 HD
ATOM     24  H   UNL     1      -8.212 -13.459  14.403  0.00  0.00    +0.000 HD
ATOM     25  H   UNL     1      -8.456 -15.249  16.105  0.00  0.00    +0.000 HD
ATOM     26  H   UNL     1      -8.927 -14.655  18.468  0.00  0.00    +0.000 HD
ATOM     27  H   UNL     1      -9.216 -12.296  19.123  0.00  0.00    +0.000 HD
ENDBRANCH   7  17
BRANCH   1  29
ATOM     28  O   UNL     1     -11.585  -3.704  19.135  0.00  0.00    +0.000 OA
ATOM     29  C   UNL     1     -10.843  -3.944  18.196  0.00  0.00    +0.000 C 
ATOM     30  N   UNL     1     -10.240  -2.984  17.415  0.00  0.00    +0.000 N 
ATOM     31  H   UNL     1      -9.750  -3.270  16.581  0.00  0.00    +0.000 HD
BRANCH  30  32
ATOM     32  C   UNL     1     -10.468  -1.562  17.626  0.00  0.00    +0.000 C 
ATOM     33  C   UNL     1      -9.278  -0.757  17.100  0.00  0.00    +0.000 C 
ATOM     34  C   UNL     1      -9.206  -0.766  15.577  0.00  0.00    +0.000 C 
ATOM     35  C   UNL     1     -10.502  -0.259  14.963  0.00  0.00    +0.000 C 
ATOM     36  C   UNL     1     -11.734  -1.038  15.450  0.00  0.00    +0.000 C 
ATOM     37  C   UNL     1     -11.783  -1.106  16.987  0.00  0.00    +0.000 C 
ATOM     38  H   UNL     1     -10.539  -1.400  18.707  0.00  0.00    +0.000 HD
ATOM     39  H   UNL     1      -8.342  -1.154  17.512  0.00  0.00    +0.000 HD
ATOM     40  H   UNL     1      -9.369   0.279  17.447  0.00  0.00    +0.000 HD
ATOM     41  H   UNL     1      -9.000  -1.779  15.212  0.00  0.00    +0.000 HD
ATOM     42  H   UNL     1      -8.372  -0.139  15.246  0.00  0.00    +0.000 HD
ATOM     43  H   UNL     1     -10.431  -0.329  13.870  0.00  0.00    +0.000 HD
ATOM     44  H   UNL     1     -10.618   0.805  15.206  0.00  0.00    +0.000 HD
ATOM     45  H   UNL     1     -11.655  -2.065  15.063  0.00  0.00    +0.000 HD
ATOM     46  H   UNL     1     -12.608  -1.760  17.298  0.00  0.00    +0.000 HD
ATOM     47  H   UNL     1     -12.014  -0.105  17.377  0.00  0.00    +0.000 HD
BRANCH  36  48
ATOM     48  C   UNL     1     -13.017  -0.420  14.893  0.00  0.00    +0.000 C 
ATOM     49  F   UNL     1     -13.437  -1.055  13.774  0.00  0.00    +0.000 F 
ATOM     50  F   UNL     1     -14.020  -0.496  15.795  0.00  0.00    +0.000 F 
ATOM     51  F   UNL     1     -12.857   0.882  14.575  0.00  0.00    +0.000 F 
ENDBRANCH  36  48
ENDBRANCH  30  32
ENDBRANCH   1  29
TORSDOF 4
ENDMDL
MODEL 7
REMARK VINA RESULT:   -10.155      4.182      4.981
REMARK INTER + INTRA:         -12.007
REMARK INTER:                 -12.316
REMARK INTRA:                   0.309
REMARK UNBOUND:                 0.523
REMARK  Name = 
REMARK  4 active torsions:
REMARK  status: ('A' for Active; 'I' for Inactive)
REMARK    1  A    between atoms: C_2  and  C_14
REMARK    2  A    between atoms: N_3  and  C_4
REMARK    3  A    between atoms: C_8  and  C_9
REMARK    4  A    between atoms: N_20  and  C_21
REMARK                            x       y       z     vdW  Elec       q    Type
REMARK                         _______ _______ _______ _____ _____    ______ ____
ROOT
ATOM      1  C   UNL     1     -10.864  -4.525  17.372  0.00  0.00    +0.000 A 
ATOM      2  C   UNL     1      -9.911  -4.763  18.368  0.00  0.00    +0.000 A 
ATOM      3  C   UNL     1      -9.423  -6.053  18.567  0.00  0.00    +0.000 A 
ATOM      4  C   UNL     1      -9.838  -7.087  17.724  0.00  0.00    +0.000 A 
ATOM      5  C   UNL     1      -9.299  -8.452  17.887  0.00  0.00    +0.000 A 
ATOM      6  O   UNL     1      -8.645  -8.692  18.895  0.00  0.00    +0.000 OA
ATOM      7  N   UNL     1      -9.628  -9.377  16.883  0.00  0.00    +0.000 N 
ATOM      8  C   UNL     1     -10.497  -9.100  15.831  0.00  0.00    +0.000 A 
ATOM      9  O   UNL     1     -10.785  -9.874  14.912  0.00  0.00    +0.000 OA
ATOM     10  N   UNL     1     -11.053  -7.849  15.797  0.00  0.00    +0.000 N 
ATOM     11  C   UNL     1     -10.735  -6.834  16.691  0.00  0.00    +0.000 A 
ATOM     12  C   UNL     1     -11.282  -5.563  16.527  0.00  0.00    +0.000 A 
ATOM     13  H   UNL     1      -9.554  -3.944  18.992  0.00  0.00    +0.000 HD
ATOM     14  H   UNL     1      -8.705  -6.240  19.362  0.00  0.00    +0.000 HD
ATOM     15  H   UNL     1     -11.658  -7.679  15.004  0.00  0.00    +0.000 HD
ATOM     16  H   UNL     1     -11.986  -5.370  15.723  0.00  0.00    +0.000 HD
ENDROOT
BRANCH   7  17
ATOM     17  C   UNL     1      -9.080 -10.690  16.986  0.00  0.00    +0.000 A 
ATOM     18  C   UNL     1      -8.654 -11.372  15.838  0.00  0.00    +0.000 A 
ATOM     19  C   UNL     1      -8.185 -12.684  15.931  0.00  0.00    +0.000 A 
ATOM     20  C   UNL     1      -8.114 -13.316  17.172  0.00  0.00    +0.000 A 
ATOM     21  C   UNL     1      -8.499 -12.630  18.324  0.00  0.00    +0.000 A 
ATOM     22  C   UNL     1      -8.986 -11.325  18.232  0.00  0.00    +0.000 A 
ATOM     23  H   UNL     1      -8.715 -10.904  14.861  0.00  0.00    +0.000 HD
ATOM     24  H   UNL     1      -7.877 -13.213  15.033  0.00  0.00    +0.000 HD
ATOM     25  H   UNL     1      -7.762 -14.341  17.241  0.00  0.00    +0.000 HD
ATOM     26  H   UNL     1      -8.434 -13.118  19.293  0.00  0.00    +0.000 HD
ATOM     27  H   UNL     1      -9.275 -10.805  19.142  0.00  0.00    +0.000 HD
ENDBRANCH   7  17
BRANCH   1  29
ATOM     28  O   UNL     1     -12.579  -2.960  16.998  0.00  0.00    +0.000 OA
ATOM     29  C   UNL     1     -11.395  -3.146  17.235  0.00  0.00    +0.000 C 
ATOM     30  N   UNL     1     -10.459  -2.145  17.361  0.00  0.00    +0.000 N 
ATOM     31  H   UNL     1      -9.484  -2.394  17.425  0.00  0.00    +0.000 HD
BRANCH  30  32
ATOM     32  C   UNL     1     -10.802  -0.742  17.186  0.00  0.00    +0.000 C 
ATOM     33  C   UNL     1     -10.733  -0.015  18.530  0.00  0.00    +0.000 C 
ATOM     34  C   UNL     1      -9.300   0.147  19.024  0.00  0.00    +0.000 C 
ATOM     35  C   UNL     1      -8.439   0.860  17.991  0.00  0.00    +0.000 C 
ATOM     36  C   UNL     1      -8.463   0.168  16.619  0.00  0.00    +0.000 C 
ATOM     37  C   UNL     1      -9.906  -0.073  16.138  0.00  0.00    +0.000 C 
ATOM     38  H   UNL     1     -11.836  -0.700  16.828  0.00  0.00    +0.000 HD
ATOM     39  H   UNL     1     -11.319  -0.556  19.282  0.00  0.00    +0.000 HD
ATOM     40  H   UNL     1     -11.187   0.978  18.421  0.00  0.00    +0.000 HD
ATOM     41  H   UNL     1      -8.862  -0.833  19.250  0.00  0.00    +0.000 HD
ATOM     42  H   UNL     1      -9.296   0.714  19.961  0.00  0.00    +0.000 HD
ATOM     43  H   UNL     1      -7.408   0.911  18.359  0.00  0.00    +0.000 HD
ATOM     44  H   UNL     1      -8.791   1.895  17.889  0.00  0.00    +0.000 HD
ATOM     45  H   UNL     1      -7.970  -0.809  16.729  0.00  0.00    +0.000 HD
ATOM     46  H   UNL     1      -9.888  -0.667  15.214  0.00  0.00    +0.000 HD
ATOM     47  H   UNL     1     -10.358   0.893  15.880  0.00  0.00    +0.000 HD
BRANCH  36  48
ATOM     48  C   UNL     1      -7.677   0.983  15.591  0.00  0.00    +0.000 C 
ATOM     49  F   UNL     1      -6.462   0.443  15.345  0.00  0.00    +0.000 F 
ATOM     50  F   UNL     1      -8.337   1.035  14.413  0.00  0.00    +0.000 F 
ATOM     51  F   UNL     1      -7.474   2.253  15.998  0.00  0.00    +0.000 F 
ENDBRANCH  36  48
ENDBRANCH  30  32
ENDBRANCH   1  29
TORSDOF 4
ENDMDL
MODEL 8
REMARK VINA RESULT:   -10.137      7.037      8.386
REMARK INTER + INTRA:         -11.984
REMARK INTER:                 -11.592
REMARK INTRA:                  -0.392
REMARK UNBOUND:                 0.523
REMARK  Name = 
REMARK  4 active torsions:
REMARK  status: ('A' for Active; 'I' for Inactive)
REMARK    1  A    between atoms: C_2  and  C_14
REMARK    2  A    between atoms: N_3  and  C_4
REMARK    3  A    between atoms: C_8  and  C_9
REMARK    4  A    between atoms: N_20  and  C_21
REMARK                            x       y       z     vdW  Elec       q    Type
REMARK                         _______ _______ _______ _____ _____    ______ ____
ROOT
ATOM      1  C   UNL     1     -11.461  -3.488  15.674  0.00  0.00    +0.000 A 
ATOM      2  C   UNL     1     -11.841  -3.674  17.007  0.00  0.00    +0.000 A 
ATOM      3  C   UNL     1     -11.580  -4.888  17.640  0.00  0.00    +0.000 A 
ATOM      4  C   UNL     1     -10.878  -5.886  16.958  0.00  0.00    +0.000 A 
ATOM      5  C   UNL     1     -10.551  -7.163  17.624  0.00  0.00    +0.000 A 
ATOM      6  O   UNL     1     -11.081  -7.397  18.703  0.00  0.00    +0.000 OA
ATOM      7  N   UNL     1      -9.687  -8.025  16.929  0.00  0.00    +0.000 N 
ATOM      8  C   UNL     1      -9.225  -7.782  15.638  0.00  0.00    +0.000 A 
ATOM      9  O   UNL     1      -8.440  -8.498  15.008  0.00  0.00    +0.000 OA
ATOM     10  N   UNL     1      -9.655  -6.633  15.030  0.00  0.00    +0.000 N 
ATOM     11  C   UNL     1     -10.443  -5.673  15.655  0.00  0.00    +0.000 A 
ATOM     12  C   UNL     1     -10.758  -4.490  14.989  0.00  0.00    +0.000 A 
ATOM     13  H   UNL     1     -12.344  -2.875  17.551  0.00  0.00    +0.000 HD
ATOM     14  H   UNL     1     -11.903  -5.041  18.666  0.00  0.00    +0.000 HD
ATOM     15  H   UNL     1      -9.277  -6.480  14.104  0.00  0.00    +0.000 HD
ATOM     16  H   UNL     1     -10.422  -4.329  13.969  0.00  0.00    +0.000 HD
ENDROOT
BRANCH   7  17
ATOM     17  C   UNL     1      -9.311  -9.244  17.569  0.00  0.00    +0.000 A 
ATOM     18  C   UNL     1      -8.645  -9.221  18.802  0.00  0.00    +0.000 A 
ATOM     19  C   UNL     1      -8.213 -10.410  19.393  0.00  0.00    +0.000 A 
ATOM     20  C   UNL     1      -8.466 -11.632  18.771  0.00  0.00    +0.000 A 
ATOM     21  C   UNL     1      -9.163 -11.666  17.564  0.00  0.00    +0.000 A 
ATOM     22  C   UNL     1      -9.580 -10.478  16.961  0.00  0.00    +0.000 A 
ATOM     23  H   UNL     1      -8.425  -8.279  19.295  0.00  0.00    +0.000 HD
ATOM     24  H   UNL     1      -7.678 -10.381  20.338  0.00  0.00    +0.000 HD
ATOM     25  H   UNL     1      -8.118 -12.556  19.224  0.00  0.00    +0.000 HD
ATOM     26  H   UNL     1      -9.371 -12.619  17.083  0.00  0.00    +0.000 HD
ATOM     27  H   UNL     1     -10.128 -10.526  16.024  0.00  0.00    +0.000 HD
ENDBRANCH   7  17
BRANCH   1  29
ATOM     28  O   UNL     1     -12.320  -1.299  15.674  0.00  0.00    +0.000 OA
ATOM     29  C   UNL     1     -11.809  -2.199  15.026  0.00  0.00    +0.000 C 
ATOM     30  N   UNL     1     -11.543  -2.134  13.677  0.00  0.00    +0.000 N 
ATOM     31  H   UNL     1     -11.243  -2.969  13.198  0.00  0.00    +0.000 HD
BRANCH  30  32
ATOM     32  C   UNL     1     -11.886  -0.967  12.878  0.00  0.00    +0.000 C 
ATOM     33  C   UNL     1     -10.685  -0.027  12.782  0.00  0.00    +0.000 C 
ATOM     34  C   UNL     1      -9.575  -0.599  11.907  0.00  0.00    +0.000 C 
ATOM     35  C   UNL     1     -10.092  -0.943  10.518  0.00  0.00    +0.000 C 
ATOM     36  C   UNL     1     -11.298  -1.894  10.552  0.00  0.00    +0.000 C 
ATOM     37  C   UNL     1     -12.399  -1.370  11.492  0.00  0.00    +0.000 C 
ATOM     38  H   UNL     1     -12.692  -0.440  13.401  0.00  0.00    +0.000 HD
ATOM     39  H   UNL     1     -10.288   0.184  13.783  0.00  0.00    +0.000 HD
ATOM     40  H   UNL     1     -11.014   0.930  12.359  0.00  0.00    +0.000 HD
ATOM     41  H   UNL     1      -9.149  -1.497  12.371  0.00  0.00    +0.000 HD
ATOM     42  H   UNL     1      -8.759   0.127  11.827  0.00  0.00    +0.000 HD
ATOM     43  H   UNL     1      -9.281  -1.398   9.937  0.00  0.00    +0.000 HD
ATOM     44  H   UNL     1     -10.369  -0.014  10.002  0.00  0.00    +0.000 HD
ATOM     45  H   UNL     1     -10.949  -2.863  10.939  0.00  0.00    +0.000 HD
ATOM     46  H   UNL     1     -13.194  -2.123  11.580  0.00  0.00    +0.000 HD
ATOM     47  H   UNL     1     -12.859  -0.483  11.036  0.00  0.00    +0.000 HD
BRANCH  36  48
ATOM     48  C   UNL     1     -11.848  -2.117   9.143  0.00  0.00    +0.000 C 
ATOM     49  F   UNL     1     -12.264  -3.392   8.962  0.00  0.00    +0.000 F 
ATOM     50  F   UNL     1     -12.909  -1.314   8.907  0.00  0.00    +0.000 F 
ATOM     51  F   UNL     1     -10.926  -1.860   8.191  0.00  0.00    +0.000 F 
ENDBRANCH  36  48
ENDBRANCH  30  32
ENDBRANCH   1  29
TORSDOF 4
ENDMDL
MODEL 9
REMARK VINA RESULT:    -9.790      5.918      7.020
REMARK INTER + INTRA:         -11.556
REMARK INTER:                 -12.210
REMARK INTRA:                   0.654
REMARK UNBOUND:                 0.523
REMARK  Name = 
REMARK  4 active torsions:
REMARK  status: ('A' for Active; 'I' for Inactive)
REMARK    1  A    between atoms: C_2  and  C_14
REMARK    2  A    between atoms: N_3  and  C_4
REMARK    3  A    between atoms: C_8  and  C_9
REMARK    4  A    between atoms: N_20  and  C_21
REMARK                            x       y       z     vdW  Elec       q    Type
REMARK                         _______ _______ _______ _____ _____    ______ ____
ROOT
ATOM      1  C   UNL     1     -10.569  -3.999  16.818  0.00  0.00    +0.000 A 
ATOM      2  C   UNL     1     -10.422  -4.573  15.550  0.00  0.00    +0.000 A 
ATOM      3  C   UNL     1      -9.982  -5.889  15.431  0.00  0.00    +0.000 A 
ATOM      4  C   UNL     1      -9.755  -6.649  16.581  0.00  0.00    +0.000 A 
ATOM      5  C   UNL     1      -9.332  -8.061  16.478  0.00  0.00    +0.000 A 
ATOM      6  O   UNL     1      -8.993  -8.477  15.377  0.00  0.00    +0.000 OA
ATOM      7  N   UNL     1      -9.311  -8.795  17.674  0.00  0.00    +0.000 N 
ATOM      8  C   UNL     1      -9.563  -8.240  18.927  0.00  0.00    +0.000 A 
ATOM      9  O   UNL     1      -9.587  -8.859  19.996  0.00  0.00    +0.000 OA
ATOM     10  N   UNL     1      -9.841  -6.900  18.969  0.00  0.00    +0.000 N 
ATOM     11  C   UNL     1      -9.966  -6.098  17.840  0.00  0.00    +0.000 A 
ATOM     12  C   UNL     1     -10.340  -4.763  17.972  0.00  0.00    +0.000 A 
ATOM     13  H   UNL     1     -10.648  -3.991  14.657  0.00  0.00    +0.000 HD
ATOM     14  H   UNL     1      -9.840  -6.322  14.444  0.00  0.00    +0.000 HD
ATOM     15  H   UNL     1     -10.043  -6.541  19.893  0.00  0.00    +0.000 HD
ATOM     16  H   UNL     1     -10.499  -4.333  18.957  0.00  0.00    +0.000 HD
ENDROOT
BRANCH   7  17
ATOM     17  C   UNL     1      -8.956 -10.175  17.600  0.00  0.00    +0.000 A 
ATOM     18  C   UNL     1      -9.146 -10.892  16.411  0.00  0.00    +0.000 A 
ATOM     19  C   UNL     1      -8.866 -12.259  16.360  0.00  0.00    +0.000 A 
ATOM     20  C   UNL     1      -8.369 -12.914  17.485  0.00  0.00    +0.000 A 
ATOM     21  C   UNL     1      -8.139 -12.199  18.661  0.00  0.00    +0.000 A 
ATOM     22  C   UNL     1      -8.436 -10.836  18.721  0.00  0.00    +0.000 A 
ATOM     23  H   UNL     1      -9.546 -10.404  15.528  0.00  0.00    +0.000 HD
ATOM     24  H   UNL     1      -9.037 -12.813  15.440  0.00  0.00    +0.000 HD
ATOM     25  H   UNL     1      -8.164 -13.981  17.449  0.00  0.00    +0.000 HD
ATOM     26  H   UNL     1      -7.741 -12.706  19.536  0.00  0.00    +0.000 HD
ATOM     27  H   UNL     1      -8.243 -10.295  19.644  0.00  0.00    +0.000 HD
ENDBRANCH   7  17
BRANCH   1  29
ATOM     28  O   UNL     1     -11.006  -1.995  17.966  0.00  0.00    +0.000 OA
ATOM     29  C   UNL     1     -10.987  -2.578  16.894  0.00  0.00    +0.000 C 
ATOM     30  N   UNL     1     -11.367  -2.017  15.695  0.00  0.00    +0.000 N 
ATOM     31  H   UNL     1     -11.445  -2.610  14.883  0.00  0.00    +0.000 HD
BRANCH  30  32
ATOM     32  C   UNL     1     -11.868  -0.654  15.606  0.00  0.00    +0.000 C 
ATOM     33  C   UNL     1     -10.721   0.305  15.286  0.00  0.00    +0.000 C 
ATOM     34  C   UNL     1     -10.215   0.140  13.857  0.00  0.00    +0.000 C 
ATOM     35  C   UNL     1     -11.343   0.309  12.851  0.00  0.00    +0.000 C 
ATOM     36  C   UNL     1     -12.523  -0.638  13.118  0.00  0.00    +0.000 C 
ATOM     37  C   UNL     1     -13.000  -0.541  14.579  0.00  0.00    +0.000 C 
ATOM     38  H   UNL     1     -12.271  -0.389  16.589  0.00  0.00    +0.000 HD
ATOM     39  H   UNL     1      -9.892   0.150  15.987  0.00  0.00    +0.000 HD
ATOM     40  H   UNL     1     -11.070   1.336  15.424  0.00  0.00    +0.000 HD
ATOM     41  H   UNL     1      -9.754  -0.846  13.728  0.00  0.00    +0.000 HD
ATOM     42  H   UNL     1      -9.430   0.879  13.658  0.00  0.00    +0.000 HD
ATOM     43  H   UNL     1     -10.952   0.134  11.842  0.00  0.00    +0.000 HD
ATOM     44  H   UNL     1     -11.691   1.351  12.879  0.00  0.00    +0.000 HD
ATOM     45  H   UNL     1     -12.175  -1.665  12.938  0.00  0.00    +0.000 HD
ATOM     46  H   UNL     1     -13.765  -1.306  14.765  0.00  0.00    +0.000 HD
ATOM     47  H   UNL     1     -13.488   0.432  14.727  0.00  0.00    +0.000 HD
BRANCH  36  48
ATOM     48  C   UNL     1     -13.674  -0.351  12.152  0.00  0.00    +0.000 C 
ATOM     49  F   UNL     1     -14.509  -1.408  12.037  0.00  0.00    +0.000 F 
ATOM     50  F   UNL     1     -14.412   0.697  12.580  0.00  0.00    +0.000 F 
ATOM     51  F   UNL     1     -13.233  -0.055  10.911  0.00  0.00    +0.000 F 
ENDBRANCH  36  48
ENDBRANCH  30  32
ENDBRANCH   1  29
TORSDOF 4
ENDMDL
