MODEL 1
REMARK VINA RESULT:   -10.216      0.000      0.000
REMARK INTER + INTRA:         -13.143
REMARK INTER:                 -12.903
REMARK INTRA:                  -0.240
REMARK UNBOUND:                -0.240
REMARK  Name = 
REMARK  6 active torsions:
REMARK  status: ('A' for Active; 'I' for Inactive)
REMARK    1  A    between atoms: C_1  and  C_2
REMARK    2  A    between atoms: N_5  and  C_6
REMARK    3  A    between atoms: N_11  and  C_12
REMARK    4  A    between atoms: C_12  and  C_13
REMARK    5  A    between atoms: C_12  and  C_14
REMARK    6  A    between atoms: C_20  and  N_21
REMARK                            x       y       z     vdW  Elec       q    Type
REMARK                         _______ _______ _______ _____ _____    ______ ____
ROOT
ATOM      1  C   UNL     1      -9.760  -5.780  18.175  0.00  0.00    +0.000 A 
ATOM      2  N   UNL     1     -11.000  -6.097  18.565  0.00  0.00    +0.000 N 
ATOM      3  C   UNL     1     -11.640  -7.123  18.020  0.00  0.00    +0.000 A 
ATOM      4  N   UNL     1     -11.119  -7.928  17.081  0.00  0.00    +0.000 NA
ATOM      5  C   UNL     1      -9.873  -7.647  16.662  0.00  0.00    +0.000 A 
ATOM      6  N   UNL     1      -9.260  -8.453  15.690  0.00  0.00    +0.000 N 
ATOM      7  C   UNL     1      -9.127  -6.578  17.203  0.00  0.00    +0.000 A 
ATOM      8  H   UNL     1     -11.443  -5.510  19.277  0.00  0.00    +0.000 HD
ATOM      9  H   UNL     1     -12.657  -7.313  18.346  0.00  0.00    +0.000 HD
ATOM     10  H   UNL     1      -9.091  -7.925  14.837  0.00  0.00    +0.000 HD
ENDROOT
BRANCH   1  14
ATOM     11  C   UNL     1      -6.577  -4.159  21.101  0.00  0.00    +0.000 A 
ATOM     12  C   UNL     1      -7.622  -3.648  20.368  0.00  0.00    +0.000 A 
ATOM     13  C   UNL     1      -8.033  -4.718  19.552  0.00  0.00    +0.000 A 
ATOM     14  N   UNL     1      -9.117  -4.667  18.746  0.00  0.00    +0.000 N 
ATOM     15  N   UNL     1      -7.259  -5.800  19.737  0.00  0.00    +0.000 NA
ATOM     16  O   UNL     1      -6.348  -5.443  20.716  0.00  0.00    +0.000 OA
ATOM     17  H   UNL     1      -8.040  -2.652  20.452  0.00  0.00    +0.000 HD
ATOM     18  H   UNL     1      -9.748  -3.869  18.820  0.00  0.00    +0.000 HD
BRANCH  11  19
ATOM     19  C   UNL     1      -5.729  -3.628  22.186  0.00  0.00    +0.000 C 
ATOM     20  H   UNL     1      -6.145  -3.886  23.166  0.00  0.00    +0.000 HD
ATOM     21  H   UNL     1      -5.650  -2.540  22.123  0.00  0.00    +0.000 HD
ATOM     22  H   UNL     1      -4.725  -4.058  22.120  0.00  0.00    +0.000 HD
ENDBRANCH  11  19
ENDBRANCH   1  14
BRANCH   7  23
ATOM     23  N   UNL     1      -7.844  -6.242  16.695  0.00  0.00    +0.000 N 
ATOM     24  H   UNL     1      -7.333  -7.096  16.445  0.00  0.00    +0.000 HD
ATOM     25  H   UNL     1      -7.272  -5.704  17.344  0.00  0.00    +0.000 HD
ENDBRANCH   7  23
BRANCH   6  26
ATOM     26  C   UNL     1      -9.866  -9.769  15.430  0.00  0.00    +0.000 C 
ATOM     27  H   UNL     1     -10.921  -9.739  15.736  0.00  0.00    +0.000 HD
BRANCH  26  28
ATOM     28  C   UNL     1      -9.198 -10.845  16.280  0.00  0.00    +0.000 A 
ATOM     29  C   UNL     1      -9.026 -10.614  17.658  0.00  0.00    +0.000 A 
ATOM     30  C   UNL     1      -8.483 -11.594  18.489  0.00  0.00    +0.000 A 
ATOM     31  C   UNL     1      -8.101 -12.823  17.958  0.00  0.00    +0.000 A 
ATOM     32  C   UNL     1      -8.265 -13.073  16.597  0.00  0.00    +0.000 A 
ATOM     33  C   UNL     1      -8.815 -12.094  15.764  0.00  0.00    +0.000 A 
ATOM     34  H   UNL     1      -9.332  -9.667  18.101  0.00  0.00    +0.000 HD
ATOM     35  H   UNL     1      -8.367 -11.403  19.554  0.00  0.00    +0.000 HD
ATOM     36  H   UNL     1      -7.684 -13.589  18.607  0.00  0.00    +0.000 HD
ATOM     37  H   UNL     1      -7.977 -14.038  16.189  0.00  0.00    +0.000 HD
ATOM     38  H   UNL     1      -8.949 -12.331  14.713  0.00  0.00    +0.000 HD
ENDBRANCH  26  28
BRANCH  26  39
ATOM     39  C   UNL     1      -9.781 -10.166  13.956  0.00  0.00    +0.000 C 
ATOM     40  H   UNL     1      -8.998 -10.911  13.779  0.00  0.00    +0.000 HD
ATOM     41  H   UNL     1      -9.573  -9.308  13.309  0.00  0.00    +0.000 HD
ATOM     42  H   UNL     1     -10.730 -10.604  13.624  0.00  0.00    +0.000 HD
ENDBRANCH  26  39
ENDBRANCH   6  26
TORSDOF 6
ENDMDL
MODEL 2
REMARK VINA RESULT:   -10.169      3.237      4.885
REMARK INTER + INTRA:         -13.084
REMARK INTER:                 -12.434
REMARK INTRA:                  -0.650
REMARK UNBOUND:                -0.240
REMARK  Name = 
REMARK  6 active torsions:
REMARK  status: ('A' for Active; 'I' for Inactive)
REMARK    1  A    between atoms: C_1  and  C_2
REMARK    2  A    between atoms: N_5  and  C_6
REMARK    3  A    between atoms: N_11  and  C_12
REMARK    4  A    between atoms: C_12  and  C_13
REMARK    5  A    between atoms: C_12  and  C_14
REMARK    6  A    between atoms: C_20  and  N_21
REMARK                            x       y       z     vdW  Elec       q    Type
REMARK                         _______ _______ _______ _____ _____    ______ ____
ROOT
ATOM      1  C   UNL     1     -10.310  -6.451  16.196  0.00  0.00    +0.000 A 
ATOM      2  N   UNL     1      -9.208  -5.905  16.724  0.00  0.00    +0.000 N 
ATOM      3  C   UNL     1      -8.336  -6.651  17.390  0.00  0.00    +0.000 A 
ATOM      4  N   UNL     1      -8.453  -7.975  17.572  0.00  0.00    +0.000 NA
ATOM      5  C   UNL     1      -9.545  -8.565  17.054  0.00  0.00    +0.000 A 
ATOM      6  N   UNL     1      -9.729  -9.949  17.195  0.00  0.00    +0.000 N 
ATOM      7  C   UNL     1     -10.511  -7.838  16.325  0.00  0.00    +0.000 A 
ATOM      8  H   UNL     1      -9.075  -4.896  16.617  0.00  0.00    +0.000 HD
ATOM      9  H   UNL     1      -7.479  -6.151  17.829  0.00  0.00    +0.000 HD
ATOM     10  H   UNL     1     -10.548 -10.149  17.766  0.00  0.00    +0.000 HD
ENDROOT
BRANCH   1  14
ATOM     11  C   UNL     1     -11.063  -2.827  13.436  0.00  0.00    +0.000 A 
ATOM     12  C   UNL     1     -11.813  -3.653  14.238  0.00  0.00    +0.000 A 
ATOM     13  C   UNL     1     -10.919  -4.665  14.632  0.00  0.00    +0.000 A 
ATOM     14  N   UNL     1     -11.235  -5.632  15.524  0.00  0.00    +0.000 N 
ATOM     15  N   UNL     1      -9.713  -4.499  14.069  0.00  0.00    +0.000 NA
ATOM     16  O   UNL     1      -9.808  -3.339  13.320  0.00  0.00    +0.000 OA
ATOM     17  H   UNL     1     -12.850  -3.508  14.520  0.00  0.00    +0.000 HD
ATOM     18  H   UNL     1     -12.112  -5.560  16.038  0.00  0.00    +0.000 HD
BRANCH  11  19
ATOM     19  C   UNL     1     -11.327  -1.551  12.745  0.00  0.00    +0.000 C 
ATOM     20  H   UNL     1     -12.263  -1.103  13.099  0.00  0.00    +0.000 HD
ATOM     21  H   UNL     1     -11.405  -1.700  11.665  0.00  0.00    +0.000 HD
ATOM     22  H   UNL     1     -10.516  -0.843  12.944  0.00  0.00    +0.000 HD
ENDBRANCH  11  19
ENDBRANCH   1  14
BRANCH   7  23
ATOM     23  N   UNL     1     -11.700  -8.458  15.854  0.00  0.00    +0.000 N 
ATOM     24  H   UNL     1     -11.463  -9.257  15.256  0.00  0.00    +0.000 HD
ATOM     25  H   UNL     1     -12.309  -7.833  15.329  0.00  0.00    +0.000 HD
ENDBRANCH   7  23
BRANCH   6  26
ATOM     26  C   UNL     1      -8.556 -10.745  17.591  0.00  0.00    +0.000 C 
ATOM     27  H   UNL     1      -7.649 -10.241  17.231  0.00  0.00    +0.000 HD
BRANCH  26  28
ATOM     28  C   UNL     1      -8.586 -12.115  16.920  0.00  0.00    +0.000 A 
ATOM     29  C   UNL     1      -8.748 -13.261  17.722  0.00  0.00    +0.000 A 
ATOM     30  C   UNL     1      -8.850 -14.529  17.150  0.00  0.00    +0.000 A 
ATOM     31  C   UNL     1      -8.792 -14.676  15.766  0.00  0.00    +0.000 A 
ATOM     32  C   UNL     1      -8.635 -13.554  14.955  0.00  0.00    +0.000 A 
ATOM     33  C   UNL     1      -8.538 -12.282  15.526  0.00  0.00    +0.000 A 
ATOM     34  H   UNL     1      -8.813 -13.172  18.805  0.00  0.00    +0.000 HD
ATOM     35  H   UNL     1      -8.986 -15.404  17.783  0.00  0.00    +0.000 HD
ATOM     36  H   UNL     1      -8.878 -15.663  15.321  0.00  0.00    +0.000 HD
ATOM     37  H   UNL     1      -8.602 -13.671  13.875  0.00  0.00    +0.000 HD
ATOM     38  H   UNL     1      -8.439 -11.428  14.863  0.00  0.00    +0.000 HD
ENDBRANCH  26  28
BRANCH  26  39
ATOM     39  C   UNL     1      -8.463 -10.927  19.106  0.00  0.00    +0.000 C 
ATOM     40  H   UNL     1      -9.446 -10.863  19.585  0.00  0.00    +0.000 HD
ATOM     41  H   UNL     1      -7.818 -10.177  19.573  0.00  0.00    +0.000 HD
ATOM     42  H   UNL     1      -8.047 -11.913  19.346  0.00  0.00    +0.000 HD
ENDBRANCH  26  39
ENDBRANCH   6  26
TORSDOF 6
ENDMDL
MODEL 3
REMARK VINA RESULT:   -10.036      2.957      4.559
REMARK INTER + INTRA:         -12.917
REMARK INTER:                 -12.427
REMARK INTRA:                  -0.490
REMARK UNBOUND:                -0.240
REMARK  Name = 
REMARK  6 active torsions:
REMARK  status: ('A' for Active; 'I' for Inactive)
REMARK    1  A    between atoms: C_1  and  C_2
REMARK    2  A    between atoms: N_5  and  C_6
REMARK    3  A    between atoms: N_11  and  C_12
REMARK    4  A    between atoms: C_12  and  C_13
REMARK    5  A    between atoms: C_12  and  C_14
REMARK    6  A    between atoms: C_20  and  N_21
REMARK                            x       y       z     vdW  Elec       q    Type
REMARK                         _______ _______ _______ _____ _____    ______ ____
ROOT
ATOM      1  C   UNL     1     -10.562  -5.316  18.440  0.00  0.00    +0.000 A 
ATOM      2  N   UNL     1      -9.428  -4.899  19.013  0.00  0.00    +0.000 N 
ATOM      3  C   UNL     1      -8.491  -5.768  19.372  0.00  0.00    +0.000 A 
ATOM      4  N   UNL     1      -8.574  -7.093  19.181  0.00  0.00    +0.000 NA
ATOM      5  C   UNL     1      -9.698  -7.556  18.604  0.00  0.00    +0.000 A 
ATOM      6  N   UNL     1      -9.849  -8.930  18.363  0.00  0.00    +0.000 N 
ATOM      7  C   UNL     1     -10.732  -6.690  18.187  0.00  0.00    +0.000 A 
ATOM      8  H   UNL     1      -9.318  -3.896  19.185  0.00  0.00    +0.000 HD
ATOM      9  H   UNL     1      -7.607  -5.379  19.866  0.00  0.00    +0.000 HD
ATOM     10  H   UNL     1     -10.613  -9.312  18.915  0.00  0.00    +0.000 HD
ENDROOT
BRANCH   1  14
ATOM     11  C   UNL     1     -12.157  -2.217  15.412  0.00  0.00    +0.000 A 
ATOM     12  C   UNL     1     -12.428  -2.589  16.707  0.00  0.00    +0.000 A 
ATOM     13  C   UNL     1     -11.657  -3.748  16.907  0.00  0.00    +0.000 A 
ATOM     14  N   UNL     1     -11.553  -4.377  18.100  0.00  0.00    +0.000 N 
ATOM     15  N   UNL     1     -10.994  -4.093  15.793  0.00  0.00    +0.000 NA
ATOM     16  O   UNL     1     -11.310  -3.124  14.856  0.00  0.00    +0.000 OA
ATOM     17  H   UNL     1     -13.067  -2.063  17.407  0.00  0.00    +0.000 HD
ATOM     18  H   UNL     1     -11.941  -3.928  18.928  0.00  0.00    +0.000 HD
BRANCH  11  19
ATOM     19  C   UNL     1     -12.556  -1.074  14.568  0.00  0.00    +0.000 C 
ATOM     20  H   UNL     1     -12.121  -1.161  13.566  0.00  0.00    +0.000 HD
ATOM     21  H   UNL     1     -12.222  -0.130  15.006  0.00  0.00    +0.000 HD
ATOM     22  H   UNL     1     -13.645  -1.047  14.465  0.00  0.00    +0.000 HD
ENDBRANCH  11  19
ENDBRANCH   1  14
BRANCH   7  23
ATOM     23  N   UNL     1     -11.948  -7.197  17.654  0.00  0.00    +0.000 N 
ATOM     24  H   UNL     1     -11.886  -7.248  16.631  0.00  0.00    +0.000 HD
ATOM     25  H   UNL     1     -12.767  -6.644  17.899  0.00  0.00    +0.000 HD
ENDBRANCH   7  23
BRANCH   6  26
ATOM     26  C   UNL     1      -8.636  -9.760  18.425  0.00  0.00    +0.000 C 
ATOM     27  H   UNL     1      -7.770  -9.142  18.149  0.00  0.00    +0.000 HD
BRANCH  26  28
ATOM     28  C   UNL     1      -8.706 -10.890  17.404  0.00  0.00    +0.000 A 
ATOM     29  C   UNL     1      -8.891 -10.569  16.045  0.00  0.00    +0.000 A 
ATOM     30  C   UNL     1      -8.893 -11.562  15.065  0.00  0.00    +0.000 A 
ATOM     31  C   UNL     1      -8.712 -12.895  15.425  0.00  0.00    +0.000 A 
ATOM     32  C   UNL     1      -8.524 -13.234  16.763  0.00  0.00    +0.000 A 
ATOM     33  C   UNL     1      -8.515 -12.239  17.746  0.00  0.00    +0.000 A 
ATOM     34  H   UNL     1      -9.019  -9.533  15.736  0.00  0.00    +0.000 HD
ATOM     35  H   UNL     1      -9.026 -11.295  14.019  0.00  0.00    +0.000 HD
ATOM     36  H   UNL     1      -8.707 -13.667  14.661  0.00  0.00    +0.000 HD
ATOM     37  H   UNL     1      -8.370 -14.274  17.038  0.00  0.00    +0.000 HD
ATOM     38  H   UNL     1      -8.344 -12.537  18.775  0.00  0.00    +0.000 HD
ENDBRANCH  26  28
BRANCH  26  39
ATOM     39  C   UNL     1      -8.409 -10.352  19.817  0.00  0.00    +0.000 C 
ATOM     40  H   UNL     1      -9.146 -11.126  20.056  0.00  0.00    +0.000 HD
ATOM     41  H   UNL     1      -8.462  -9.591  20.602  0.00  0.00    +0.000 HD
ATOM     42  H   UNL     1      -7.417 -10.816  19.876  0.00  0.00    +0.000 HD
ENDBRANCH  26  39
ENDBRANCH   6  26
TORSDOF 6
ENDMDL
MODEL 4
REMARK VINA RESULT:    -9.880      1.892      2.535
REMARK INTER + INTRA:         -12.719
REMARK INTER:                 -12.090
REMARK INTRA:                  -0.629
REMARK UNBOUND:                -0.240
REMARK  Name = 
REMARK  6 active torsions:
REMARK  status: ('A' for Active; 'I' for Inactive)
REMARK    1  A    between atoms: C_1  and  C_2
REMARK    2  A    between atoms: N_5  and  C_6
REMARK    3  A    between atoms: N_11  and  C_12
REMARK    4  A    between atoms: C_12  and  C_13
REMARK    5  A    between atoms: C_12  and  C_14
REMARK    6  A    between atoms: C_20  and  N_21
REMARK                            x       y       z     vdW  Elec       q    Type
REMARK                         _______ _______ _______ _____ _____    ______ ____
ROOT
ATOM      1  C   UNL     1      -9.804  -5.812  18.465  0.00  0.00    +0.000 A 
ATOM      2  N   UNL     1     -11.101  -6.086  18.646  0.00  0.00    +0.000 N 
ATOM      3  C   UNL     1     -11.690  -7.054  17.956  0.00  0.00    +0.000 A 
ATOM      4  N   UNL     1     -11.065  -7.838  17.064  0.00  0.00    +0.000 NA
ATOM      5  C   UNL     1      -9.758  -7.598  16.854  0.00  0.00    +0.000 A 
ATOM      6  N   UNL     1      -9.037  -8.386  15.944  0.00  0.00    +0.000 N 
ATOM      7  C   UNL     1      -9.062  -6.592  17.559  0.00  0.00    +0.000 A 
ATOM      8  H   UNL     1     -11.624  -5.513  19.313  0.00  0.00    +0.000 HD
ATOM      9  H   UNL     1     -12.752  -7.210  18.114  0.00  0.00    +0.000 HD
ATOM     10  H   UNL     1      -8.718  -7.827  15.156  0.00  0.00    +0.000 HD
ENDROOT
BRANCH   1  14
ATOM     11  C   UNL     1      -9.760  -1.317  19.520  0.00  0.00    +0.000 A 
ATOM     12  C   UNL     1      -8.935  -2.400  19.703  0.00  0.00    +0.000 A 
ATOM     13  C   UNL     1      -9.699  -3.500  19.272  0.00  0.00    +0.000 A 
ATOM     14  N   UNL     1      -9.212  -4.758  19.186  0.00  0.00    +0.000 N 
ATOM     15  N   UNL     1     -10.931  -3.122  18.896  0.00  0.00    +0.000 NA
ATOM     16  O   UNL     1     -10.963  -1.747  19.051  0.00  0.00    +0.000 OA
ATOM     17  H   UNL     1      -7.912  -2.377  20.061  0.00  0.00    +0.000 HD
ATOM     18  H   UNL     1      -8.212  -4.908  19.312  0.00  0.00    +0.000 HD
BRANCH  11  19
ATOM     19  C   UNL     1      -9.595   0.140  19.691  0.00  0.00    +0.000 C 
ATOM     20  H   UNL     1      -8.784   0.359  20.394  0.00  0.00    +0.000 HD
ATOM     21  H   UNL     1     -10.512   0.595  20.072  0.00  0.00    +0.000 HD
ATOM     22  H   UNL     1      -9.346   0.602  18.731  0.00  0.00    +0.000 HD
ENDBRANCH  11  19
ENDBRANCH   1  14
BRANCH   7  23
ATOM     23  N   UNL     1      -7.703  -6.295  17.269  0.00  0.00    +0.000 N 
ATOM     24  H   UNL     1      -7.432  -5.418  17.727  0.00  0.00    +0.000 HD
ATOM     25  H   UNL     1      -7.503  -6.211  16.274  0.00  0.00    +0.000 HD
ENDBRANCH   7  23
BRANCH   6  26
ATOM     26  C   UNL     1      -9.648  -9.658  15.525  0.00  0.00    +0.000 C 
ATOM     27  H   UNL     1     -10.736  -9.589  15.662  0.00  0.00    +0.000 HD
BRANCH  26  28
ATOM     28  C   UNL     1      -9.170 -10.801  16.412  0.00  0.00    +0.000 A 
ATOM     29  C   UNL     1      -8.858 -12.039  15.819  0.00  0.00    +0.000 A 
ATOM     30  C   UNL     1      -8.352 -13.094  16.578  0.00  0.00    +0.000 A 
ATOM     31  C   UNL     1      -8.149 -12.931  17.946  0.00  0.00    +0.000 A 
ATOM     32  C   UNL     1      -8.447 -11.714  18.553  0.00  0.00    +0.000 A 
ATOM     33  C   UNL     1      -8.949 -10.653  17.792  0.00  0.00    +0.000 A 
ATOM     34  H   UNL     1      -8.994 -12.187  14.749  0.00  0.00    +0.000 HD
ATOM     35  H   UNL     1      -8.107 -14.041  16.102  0.00  0.00    +0.000 HD
ATOM     36  H   UNL     1      -7.748 -13.751  18.537  0.00  0.00    +0.000 HD
ATOM     37  H   UNL     1      -8.275 -11.587  19.619  0.00  0.00    +0.000 HD
ATOM     38  H   UNL     1      -9.149  -9.712  18.293  0.00  0.00    +0.000 HD
ENDBRANCH  26  28
BRANCH  26  39
ATOM     39  C   UNL     1      -9.345  -9.992  14.064  0.00  0.00    +0.000 C 
ATOM     40  H   UNL     1     -10.182  -9.735  13.405  0.00  0.00    +0.000 HD
ATOM     41  H   UNL     1      -9.126 -11.054  13.920  0.00  0.00    +0.000 HD
ATOM     42  H   UNL     1      -8.471  -9.427  13.717  0.00  0.00    +0.000 HD
ENDBRANCH  26  39
ENDBRANCH   6  26
TORSDOF 6
ENDMDL
MODEL 5
REMARK VINA RESULT:    -9.711      2.216      3.095
REMARK INTER + INTRA:         -12.505
REMARK INTER:                 -12.080
REMARK INTRA:                  -0.425
REMARK UNBOUND:                -0.240
REMARK  Name = 
REMARK  6 active torsions:
REMARK  status: ('A' for Active; 'I' for Inactive)
REMARK    1  A    between atoms: C_1  and  C_2
REMARK    2  A    between atoms: N_5  and  C_6
REMARK    3  A    between atoms: N_11  and  C_12
REMARK    4  A    between atoms: C_12  and  C_13
REMARK    5  A    between atoms: C_12  and  C_14
REMARK    6  A    between atoms: C_20  and  N_21
REMARK                            x       y       z     vdW  Elec       q    Type
REMARK                         _______ _______ _______ _____ _____    ______ ____
ROOT
ATOM      1  C   UNL     1      -8.356  -4.382  19.913  0.00  0.00    +0.000 A 
ATOM      2  N   UNL     1      -9.436  -3.795  19.387  0.00  0.00    +0.000 N 
ATOM      3  C   UNL     1     -10.112  -4.375  18.403  0.00  0.00    +0.000 A 
ATOM      4  N   UNL     1      -9.806  -5.571  17.877  0.00  0.00    +0.000 NA
ATOM      5  C   UNL     1      -8.728  -6.199  18.379  0.00  0.00    +0.000 A 
ATOM      6  N   UNL     1      -8.355  -7.459  17.886  0.00  0.00    +0.000 N 
ATOM      7  C   UNL     1      -7.967  -5.647  19.433  0.00  0.00    +0.000 A 
ATOM      8  H   UNL     1      -9.708  -2.878  19.751  0.00  0.00    +0.000 HD
ATOM      9  H   UNL     1     -10.958  -3.838  17.988  0.00  0.00    +0.000 HD
ATOM     10  H   UNL     1      -7.449  -7.413  17.425  0.00  0.00    +0.000 HD
ENDROOT
BRANCH   1  14
ATOM     11  C   UNL     1      -8.244  -1.074  23.132  0.00  0.00    +0.000 A 
ATOM     12  C   UNL     1      -7.347  -1.928  22.536  0.00  0.00    +0.000 A 
ATOM     13  C   UNL     1      -8.145  -2.795  21.768  0.00  0.00    +0.000 A 
ATOM     14  N   UNL     1      -7.639  -3.729  20.932  0.00  0.00    +0.000 N 
ATOM     15  N   UNL     1      -9.451  -2.524  21.922  0.00  0.00    +0.000 NA
ATOM     16  O   UNL     1      -9.507  -1.437  22.778  0.00  0.00    +0.000 OA
ATOM     17  H   UNL     1      -6.268  -1.890  22.624  0.00  0.00    +0.000 HD
ATOM     18  H   UNL     1      -6.637  -3.728  20.742  0.00  0.00    +0.000 HD
BRANCH  11  19
ATOM     19  C   UNL     1      -8.111   0.110  24.002  0.00  0.00    +0.000 C 
ATOM     20  H   UNL     1      -7.172   0.076  24.564  0.00  0.00    +0.000 HD
ATOM     21  H   UNL     1      -8.937   0.166  24.715  0.00  0.00    +0.000 HD
ATOM     22  H   UNL     1      -8.111   1.021  23.394  0.00  0.00    +0.000 HD
ENDBRANCH  11  19
ENDBRANCH   1  14
BRANCH   7  23
ATOM     23  N   UNL     1      -6.784  -6.281  19.899  0.00  0.00    +0.000 N 
ATOM     24  H   UNL     1      -6.977  -6.781  20.773  0.00  0.00    +0.000 HD
ATOM     25  H   UNL     1      -6.010  -5.640  20.060  0.00  0.00    +0.000 HD
ENDBRANCH   7  23
BRANCH   6  26
ATOM     26  C   UNL     1      -9.356  -8.193  17.094  0.00  0.00    +0.000 C 
ATOM     27  H   UNL     1     -10.351  -8.004  17.520  0.00  0.00    +0.000 HD
BRANCH  26  28
ATOM     28  C   UNL     1      -9.119  -9.696  17.191  0.00  0.00    +0.000 A 
ATOM     29  C   UNL     1      -9.193 -10.473  16.020  0.00  0.00    +0.000 A 
ATOM     30  C   UNL     1      -8.918 -11.841  16.045  0.00  0.00    +0.000 A 
ATOM     31  C   UNL     1      -8.564 -12.456  17.243  0.00  0.00    +0.000 A 
ATOM     32  C   UNL     1      -8.482 -11.705  18.413  0.00  0.00    +0.000 A 
ATOM     33  C   UNL     1      -8.752 -10.333  18.388  0.00  0.00    +0.000 A 
ATOM     34  H   UNL     1      -9.452 -10.013  15.068  0.00  0.00    +0.000 HD
ATOM     35  H   UNL     1      -8.969 -12.425  15.129  0.00  0.00    +0.000 HD
ATOM     36  H   UNL     1      -8.343 -13.520  17.262  0.00  0.00    +0.000 HD
ATOM     37  H   UNL     1      -8.193 -12.187  19.343  0.00  0.00    +0.000 HD
ATOM     38  H   UNL     1      -8.657  -9.774  19.313  0.00  0.00    +0.000 HD
ENDBRANCH  26  28
BRANCH  26  39
ATOM     39  C   UNL     1      -9.351  -7.775  15.623  0.00  0.00    +0.000 C 
ATOM     40  H   UNL     1      -8.773  -6.858  15.462  0.00  0.00    +0.000 HD
ATOM     41  H   UNL     1     -10.361  -7.601  15.240  0.00  0.00    +0.000 HD
ATOM     42  H   UNL     1      -8.896  -8.560  15.006  0.00  0.00    +0.000 HD
ENDBRANCH  26  39
ENDBRANCH   6  26
TORSDOF 6
ENDMDL
MODEL 6
REMARK VINA RESULT:    -9.571      2.741      4.100
REMARK INTER + INTRA:         -12.329
REMARK INTER:                 -11.504
REMARK INTRA:                  -0.825
REMARK UNBOUND:                -0.240
REMARK  Name = 
REMARK  6 active torsions:
REMARK  status: ('A' for Active; 'I' for Inactive)
REMARK    1  A    between atoms: C_1  and  C_2
REMARK    2  A    between atoms: N_5  and  C_6
REMARK    3  A    between atoms: N_11  and  C_12
REMARK    4  A    between atoms: C_12  and  C_13
REMARK    5  A    between atoms: C_12  and  C_14
REMARK    6  A    between atoms: C_20  and  N_21
REMARK                            x       y       z     vdW  Elec       q    Type
REMARK                         _______ _______ _______ _____ _____    ______ ____
ROOT
ATOM      1  C   UNL     1      -9.140  -4.500  18.763  0.00  0.00    +0.000 A 
ATOM      2  N   UNL     1      -7.867  -4.349  19.145  0.00  0.00    +0.000 N 
ATOM      3  C   UNL     1      -7.175  -5.378  19.615  0.00  0.00    +0.000 A 
ATOM      4  N   UNL     1      -7.654  -6.626  19.727  0.00  0.00    +0.000 NA
ATOM      5  C   UNL     1      -8.930  -6.824  19.351  0.00  0.00    +0.000 A 
ATOM      6  N   UNL     1      -9.495  -8.106  19.429  0.00  0.00    +0.000 N 
ATOM      7  C   UNL     1      -9.725  -5.779  18.831  0.00  0.00    +0.000 A 
ATOM      8  H   UNL     1      -7.456  -3.414  19.083  0.00  0.00    +0.000 HD
ATOM      9  H   UNL     1      -6.158  -5.192  19.945  0.00  0.00    +0.000 HD
ATOM     10  H   UNL     1     -10.254  -8.126  20.107  0.00  0.00    +0.000 HD
ENDROOT
BRANCH   1  14
ATOM     11  C   UNL     1     -11.090  -0.420  19.699  0.00  0.00    +0.000 A 
ATOM     12  C   UNL     1     -11.093  -1.322  18.662  0.00  0.00    +0.000 A 
ATOM     13  C   UNL     1     -10.105  -2.261  19.010  0.00  0.00    +0.000 A 
ATOM     14  N   UNL     1      -9.862  -3.385  18.299  0.00  0.00    +0.000 N 
ATOM     15  N   UNL     1      -9.500  -1.929  20.161  0.00  0.00    +0.000 NA
ATOM     16  O   UNL     1     -10.126  -0.773  20.592  0.00  0.00    +0.000 OA
ATOM     17  H   UNL     1     -11.751  -1.309  17.801  0.00  0.00    +0.000 HD
ATOM     18  H   UNL     1     -10.503  -3.641  17.549  0.00  0.00    +0.000 HD
BRANCH  11  19
ATOM     19  C   UNL     1     -11.903   0.766  20.031  0.00  0.00    +0.000 C 
ATOM     20  H   UNL     1     -11.294   1.676  19.997  0.00  0.00    +0.000 HD
ATOM     21  H   UNL     1     -12.332   0.677  21.032  0.00  0.00    +0.000 HD
ATOM     22  H   UNL     1     -12.717   0.874  19.308  0.00  0.00    +0.000 HD
ENDBRANCH  11  19
ENDBRANCH   1  14
BRANCH   7  23
ATOM     23  N   UNL     1     -11.095  -5.982  18.514  0.00  0.00    +0.000 N 
ATOM     24  H   UNL     1     -11.329  -6.977  18.600  0.00  0.00    +0.000 HD
ATOM     25  H   UNL     1     -11.351  -5.671  17.579  0.00  0.00    +0.000 HD
ENDBRANCH   7  23
BRANCH   6  26
ATOM     26  C   UNL     1      -8.569  -9.240  19.582  0.00  0.00    +0.000 C 
ATOM     27  H   UNL     1      -7.538  -8.866  19.509  0.00  0.00    +0.000 HD
BRANCH  26  28
ATOM     28  C   UNL     1      -8.750 -10.238  18.445  0.00  0.00    +0.000 A 
ATOM     29  C   UNL     1      -9.236  -9.778  17.206  0.00  0.00    +0.000 A 
ATOM     30  C   UNL     1      -9.355 -10.639  16.115  0.00  0.00    +0.000 A 
ATOM     31  C   UNL     1      -8.991 -11.977  16.242  0.00  0.00    +0.000 A 
ATOM     32  C   UNL     1      -8.506 -12.452  17.458  0.00  0.00    +0.000 A 
ATOM     33  C   UNL     1      -8.380 -11.589  18.551  0.00  0.00    +0.000 A 
ATOM     34  H   UNL     1      -9.512  -8.733  17.076  0.00  0.00    +0.000 HD
ATOM     35  H   UNL     1      -9.722 -10.265  15.162  0.00  0.00    +0.000 HD
ATOM     36  H   UNL     1      -9.077 -12.646  15.390  0.00  0.00    +0.000 HD
ATOM     37  H   UNL     1      -8.211 -13.495  17.549  0.00  0.00    +0.000 HD
ATOM     38  H   UNL     1      -7.978 -11.988  19.476  0.00  0.00    +0.000 HD
ENDBRANCH  26  28
BRANCH  26  39
ATOM     39  C   UNL     1      -8.750  -9.959  20.919  0.00  0.00    +0.000 C 
ATOM     40  H   UNL     1      -7.917  -9.764  21.603  0.00  0.00    +0.000 HD
ATOM     41  H   UNL     1      -8.831 -11.043  20.797  0.00  0.00    +0.000 HD
ATOM     42  H   UNL     1      -9.667  -9.615  21.415  0.00  0.00    +0.000 HD
ENDBRANCH  26  39
ENDBRANCH   6  26
TORSDOF 6
ENDMDL
MODEL 7
REMARK VINA RESULT:    -9.276      2.625      7.665
REMARK INTER + INTRA:         -11.956
REMARK INTER:                 -11.217
REMARK INTRA:                  -0.739
REMARK UNBOUND:                -0.240
REMARK  Name = 
REMARK  6 active torsions:
REMARK  status: ('A' for Active; 'I' for Inactive)
REMARK    1  A    between atoms: C_1  and  C_2
REMARK    2  A    between atoms: N_5  and  C_6
REMARK    3  A    between atoms: N_11  and  C_12
REMARK    4  A    between atoms: C_12  and  C_13
REMARK    5  A    between atoms: C_12  and  C_14
REMARK    6  A    between atoms: C_20  and  N_21
REMARK                            x       y       z     vdW  Elec       q    Type
REMARK                         _______ _______ _______ _____ _____    ______ ____
ROOT
ATOM      1  C   UNL     1      -9.145  -9.375  17.525  0.00  0.00    +0.000 A 
ATOM      2  N   UNL     1      -9.217  -8.803  16.318  0.00  0.00    +0.000 N 
ATOM      3  C   UNL     1      -9.197  -7.482  16.193  0.00  0.00    +0.000 A 
ATOM      4  N   UNL     1      -9.082  -6.626  17.219  0.00  0.00    +0.000 NA
ATOM      5  C   UNL     1      -9.004  -7.159  18.451  0.00  0.00    +0.000 A 
ATOM      6  N   UNL     1      -8.870  -6.325  19.571  0.00  0.00    +0.000 N 
ATOM      7  C   UNL     1      -9.008  -8.555  18.661  0.00  0.00    +0.000 A 
ATOM      8  H   UNL     1      -9.310  -9.414  15.503  0.00  0.00    +0.000 HD
ATOM      9  H   UNL     1      -9.296  -7.070  15.194  0.00  0.00    +0.000 HD
ATOM     10  H   UNL     1      -9.687  -6.395  20.174  0.00  0.00    +0.000 HD
ENDROOT
BRANCH   1  14
ATOM     11  C   UNL     1      -8.687 -13.489  15.478  0.00  0.00    +0.000 A 
ATOM     12  C   UNL     1      -9.184 -13.006  16.665  0.00  0.00    +0.000 A 
ATOM     13  C   UNL     1      -8.811 -11.650  16.675  0.00  0.00    +0.000 A 
ATOM     14  N   UNL     1      -9.202 -10.777  17.631  0.00  0.00    +0.000 N 
ATOM     15  N   UNL     1      -8.089 -11.332  15.589  0.00  0.00    +0.000 NA
ATOM     16  O   UNL     1      -8.018 -12.492  14.837  0.00  0.00    +0.000 OA
ATOM     17  H   UNL     1      -9.765 -13.561  17.391  0.00  0.00    +0.000 HD
ATOM     18  H   UNL     1      -9.904 -11.072  18.309  0.00  0.00    +0.000 HD
BRANCH  11  19
ATOM     19  C   UNL     1      -8.763 -14.790  14.787  0.00  0.00    +0.000 C 
ATOM     20  H   UNL     1      -8.361 -15.590  15.419  0.00  0.00    +0.000 HD
ATOM     21  H   UNL     1      -8.193 -14.771  13.854  0.00  0.00    +0.000 HD
ATOM     22  H   UNL     1      -9.806 -15.030  14.557  0.00  0.00    +0.000 HD
ENDBRANCH  11  19
ENDBRANCH   1  14
BRANCH   7  23
ATOM     23  N   UNL     1      -9.007  -9.104  19.971  0.00  0.00    +0.000 N 
ATOM     24  H   UNL     1      -8.069  -9.028  20.380  0.00  0.00    +0.000 HD
ATOM     25  H   UNL     1      -9.295 -10.080  20.009  0.00  0.00    +0.000 HD
ENDBRANCH   7  23
BRANCH   6  26
ATOM     26  C   UNL     1      -8.468  -4.930  19.325  0.00  0.00    +0.000 C 
ATOM     27  H   UNL     1      -8.202  -4.821  18.265  0.00  0.00    +0.000 HD
BRANCH  26  28
ATOM     28  C   UNL     1      -7.217  -4.583  20.125  0.00  0.00    +0.000 A 
ATOM     29  C   UNL     1      -5.982  -5.131  19.728  0.00  0.00    +0.000 A 
ATOM     30  C   UNL     1      -4.800  -4.790  20.385  0.00  0.00    +0.000 A 
ATOM     31  C   UNL     1      -4.830  -3.896  21.452  0.00  0.00    +0.000 A 
ATOM     32  C   UNL     1      -6.040  -3.341  21.859  0.00  0.00    +0.000 A 
ATOM     33  C   UNL     1      -7.226  -3.676  21.198  0.00  0.00    +0.000 A 
ATOM     34  H   UNL     1      -5.930  -5.820  18.886  0.00  0.00    +0.000 HD
ATOM     35  H   UNL     1      -3.853  -5.214  20.059  0.00  0.00    +0.000 HD
ATOM     36  H   UNL     1      -3.907  -3.626  21.960  0.00  0.00    +0.000 HD
ATOM     37  H   UNL     1      -6.058  -2.633  22.684  0.00  0.00    +0.000 HD
ATOM     38  H   UNL     1      -8.147  -3.207  21.527  0.00  0.00    +0.000 HD
ENDBRANCH  26  28
BRANCH  26  39
ATOM     39  C   UNL     1      -9.579  -3.937  19.670  0.00  0.00    +0.000 C 
ATOM     40  H   UNL     1     -10.558  -4.283  19.321  0.00  0.00    +0.000 HD
ATOM     41  H   UNL     1      -9.401  -2.950  19.233  0.00  0.00    +0.000 HD
ATOM     42  H   UNL     1      -9.648  -3.807  20.757  0.00  0.00    +0.000 HD
ENDBRANCH  26  39
ENDBRANCH   6  26
TORSDOF 6
ENDMDL
MODEL 8
REMARK VINA RESULT:    -9.270      2.774      7.831
REMARK INTER + INTRA:         -11.948
REMARK INTER:                 -11.172
REMARK INTRA:                  -0.776
REMARK UNBOUND:                -0.240
REMARK  Name = 
REMARK  6 active torsions:
REMARK  status: ('A' for Active; 'I' for Inactive)
REMARK    1  A    between atoms: C_1  and  C_2
REMARK    2  A    between atoms: N_5  and  C_6
REMARK    3  A    between atoms: N_11  and  C_12
REMARK    4  A    between atoms: C_12  and  C_13
REMARK    5  A    between atoms: C_12  and  C_14
REMARK    6  A    between atoms: C_20  and  N_21
REMARK                            x       y       z     vdW  Elec       q    Type
REMARK                         _______ _______ _______ _____ _____    ______ ____
ROOT
ATOM      1  C   UNL     1      -9.074  -8.980  17.999  0.00  0.00    +0.000 A 
ATOM      2  N   UNL     1      -9.238  -9.516  19.214  0.00  0.00    +0.000 N 
ATOM      3  C   UNL     1      -8.911  -8.834  20.304  0.00  0.00    +0.000 A 
ATOM      4  N   UNL     1      -8.427  -7.583  20.298  0.00  0.00    +0.000 NA
ATOM      5  C   UNL     1      -8.250  -7.004  19.097  0.00  0.00    +0.000 A 
ATOM      6  N   UNL     1      -7.759  -5.692  19.015  0.00  0.00    +0.000 N 
ATOM      7  C   UNL     1      -8.585  -7.664  17.895  0.00  0.00    +0.000 A 
ATOM      8  H   UNL     1      -9.600 -10.471  19.271  0.00  0.00    +0.000 HD
ATOM      9  H   UNL     1      -9.029  -9.330  21.262  0.00  0.00    +0.000 HD
ATOM     10  H   UNL     1      -6.848  -5.675  18.561  0.00  0.00    +0.000 HD
ENDROOT
BRANCH   1  14
ATOM     11  C   UNL     1      -8.671 -12.953  15.682  0.00  0.00    +0.000 A 
ATOM     12  C   UNL     1      -9.138 -11.686  15.430  0.00  0.00    +0.000 A 
ATOM     13  C   UNL     1      -9.113 -11.048  16.684  0.00  0.00    +0.000 A 
ATOM     14  N   UNL     1      -9.398  -9.737  16.859  0.00  0.00    +0.000 N 
ATOM     15  N   UNL     1      -8.703 -11.884  17.650  0.00  0.00    +0.000 NA
ATOM     16  O   UNL     1      -8.423 -13.080  17.013  0.00  0.00    +0.000 OA
ATOM     17  H   UNL     1      -9.417 -11.283  14.463  0.00  0.00    +0.000 HD
ATOM     18  H   UNL     1      -9.511  -9.145  16.037  0.00  0.00    +0.000 HD
BRANCH  11  19
ATOM     19  C   UNL     1      -8.369 -14.123  14.834  0.00  0.00    +0.000 C 
ATOM     20  H   UNL     1      -7.301 -14.165  14.594  0.00  0.00    +0.000 HD
ATOM     21  H   UNL     1      -8.930 -14.081  13.897  0.00  0.00    +0.000 HD
ATOM     22  H   UNL     1      -8.635 -15.045  15.362  0.00  0.00    +0.000 HD
ENDBRANCH  11  19
ENDBRANCH   1  14
BRANCH   7  23
ATOM     23  N   UNL     1      -8.317  -7.075  16.631  0.00  0.00    +0.000 N 
ATOM     24  H   UNL     1      -7.391  -6.634  16.640  0.00  0.00    +0.000 HD
ATOM     25  H   UNL     1      -9.002  -6.375  16.349  0.00  0.00    +0.000 HD
ENDBRANCH   7  23
BRANCH   6  26
ATOM     26  C   UNL     1      -7.793  -4.884  20.244  0.00  0.00    +0.000 C 
ATOM     27  H   UNL     1      -8.294  -5.462  21.033  0.00  0.00    +0.000 HD
BRANCH  26  28
ATOM     28  C   UNL     1      -8.625  -3.624  20.035  0.00  0.00    +0.000 A 
ATOM     29  C   UNL     1      -8.534  -2.583  20.979  0.00  0.00    +0.000 A 
ATOM     30  C   UNL     1      -9.222  -1.383  20.796  0.00  0.00    +0.000 A 
ATOM     31  C   UNL     1     -10.015  -1.202  19.666  0.00  0.00    +0.000 A 
ATOM     32  C   UNL     1     -10.117  -2.217  18.718  0.00  0.00    +0.000 A 
ATOM     33  C   UNL     1      -9.423  -3.418  18.897  0.00  0.00    +0.000 A 
ATOM     34  H   UNL     1      -7.907  -2.694  21.863  0.00  0.00    +0.000 HD
ATOM     35  H   UNL     1      -9.132  -0.585  21.529  0.00  0.00    +0.000 HD
ATOM     36  H   UNL     1     -10.546  -0.265  19.520  0.00  0.00    +0.000 HD
ATOM     37  H   UNL     1     -10.727  -2.067  17.832  0.00  0.00    +0.000 HD
ATOM     38  H   UNL     1      -9.508  -4.179  18.128  0.00  0.00    +0.000 HD
ENDBRANCH  26  28
BRANCH  26  39
ATOM     39  C   UNL     1      -6.394  -4.492  20.720  0.00  0.00    +0.000 C 
ATOM     40  H   UNL     1      -6.406  -4.092  21.739  0.00  0.00    +0.000 HD
ATOM     41  H   UNL     1      -5.935  -3.737  20.074  0.00  0.00    +0.000 HD
ATOM     42  H   UNL     1      -5.733  -5.368  20.721  0.00  0.00    +0.000 HD
ENDBRANCH  26  39
ENDBRANCH   6  26
TORSDOF 6
ENDMDL
MODEL 9
REMARK VINA RESULT:    -9.014      2.912      7.979
REMARK INTER + INTRA:         -11.625
REMARK INTER:                 -10.764
REMARK INTRA:                  -0.862
REMARK UNBOUND:                -0.240
REMARK  Name = 
REMARK  6 active torsions:
REMARK  status: ('A' for Active; 'I' for Inactive)
REMARK    1  A    between atoms: C_1  and  C_2
REMARK    2  A    between atoms: N_5  and  C_6
REMARK    3  A    between atoms: N_11  and  C_12
REMARK    4  A    between atoms: C_12  and  C_13
REMARK    5  A    between atoms: C_12  and  C_14
REMARK    6  A    between atoms: C_20  and  N_21
REMARK                            x       y       z     vdW  Elec       q    Type
REMARK                         _______ _______ _______ _____ _____    ______ ____
ROOT
ATOM      1  C   UNL     1      -8.816  -6.578  18.475  0.00  0.00    +0.000 A 
ATOM      2  N   UNL     1      -7.498  -6.548  18.703  0.00  0.00    +0.000 N 
ATOM      3  C   UNL     1      -6.927  -5.477  19.239  0.00  0.00    +0.000 A 
ATOM      4  N   UNL     1      -7.591  -4.372  19.612  0.00  0.00    +0.000 NA
ATOM      5  C   UNL     1      -8.919  -4.361  19.404  0.00  0.00    +0.000 A 
ATOM      6  N   UNL     1      -9.680  -3.243  19.780  0.00  0.00    +0.000 N 
ATOM      7  C   UNL     1      -9.597  -5.468  18.848  0.00  0.00    +0.000 A 
ATOM      8  H   UNL     1      -6.946  -7.366  18.431  0.00  0.00    +0.000 HD
ATOM      9  H   UNL     1      -5.850  -5.492  19.368  0.00  0.00    +0.000 HD
ATOM     10  H   UNL     1     -10.087  -2.791  18.964  0.00  0.00    +0.000 HD
ENDROOT
BRANCH   1  14
ATOM     11  C   UNL     1      -8.860 -11.171  18.011  0.00  0.00    +0.000 A 
ATOM     12  C   UNL     1      -9.426 -10.092  17.377  0.00  0.00    +0.000 A 
ATOM     13  C   UNL     1      -9.107  -8.995  18.199  0.00  0.00    +0.000 A 
ATOM     14  N   UNL     1      -9.390  -7.713  17.875  0.00  0.00    +0.000 N 
ATOM     15  N   UNL     1      -8.431  -9.384  19.292  0.00  0.00    +0.000 NA
ATOM     16  O   UNL     1      -8.275 -10.754  19.166  0.00  0.00    +0.000 OA
ATOM     17  H   UNL     1      -9.959 -10.106  16.434  0.00  0.00    +0.000 HD
ATOM     18  H   UNL     1      -9.733  -7.507  16.938  0.00  0.00    +0.000 HD
BRANCH  11  19
ATOM     19  C   UNL     1      -8.739 -12.605  17.684  0.00  0.00    +0.000 C 
ATOM     20  H   UNL     1      -7.815 -13.022  18.100  0.00  0.00    +0.000 HD
ATOM     21  H   UNL     1      -8.729 -12.760  16.603  0.00  0.00    +0.000 HD
ATOM     22  H   UNL     1      -9.582 -13.158  18.110  0.00  0.00    +0.000 HD
ENDBRANCH  11  19
ENDBRANCH   1  14
BRANCH   7  23
ATOM     23  N   UNL     1     -10.986  -5.412  18.557  0.00  0.00    +0.000 N 
ATOM     24  H   UNL     1     -11.375  -6.361  18.530  0.00  0.00    +0.000 HD
ATOM     25  H   UNL     1     -11.204  -4.951  17.676  0.00  0.00    +0.000 HD
ENDBRANCH   7  23
BRANCH   6  26
ATOM     26  C   UNL     1      -9.052  -2.284  20.704  0.00  0.00    +0.000 C 
ATOM     27  H   UNL     1      -7.981  -2.517  20.780  0.00  0.00    +0.000 HD
BRANCH  26  28
ATOM     28  C   UNL     1      -9.631  -2.432  22.106  0.00  0.00    +0.000 A 
ATOM     29  C   UNL     1      -8.784  -2.847  23.152  0.00  0.00    +0.000 A 
ATOM     30  C   UNL     1      -9.249  -2.932  24.464  0.00  0.00    +0.000 A 
ATOM     31  C   UNL     1     -10.570  -2.604  24.756  0.00  0.00    +0.000 A 
ATOM     32  C   UNL     1     -11.424  -2.188  23.738  0.00  0.00    +0.000 A 
ATOM     33  C   UNL     1     -10.958  -2.097  22.423  0.00  0.00    +0.000 A 
ATOM     34  H   UNL     1      -7.742  -3.094  22.952  0.00  0.00    +0.000 HD
ATOM     35  H   UNL     1      -8.578  -3.245  25.261  0.00  0.00    +0.000 HD
ATOM     36  H   UNL     1     -10.931  -2.664  25.780  0.00  0.00    +0.000 HD
ATOM     37  H   UNL     1     -12.451  -1.921  23.972  0.00  0.00    +0.000 HD
ATOM     38  H   UNL     1     -11.645  -1.748  21.658  0.00  0.00    +0.000 HD
ENDBRANCH  26  28
BRANCH  26  39
ATOM     39  C   UNL     1      -9.221  -0.837  20.239  0.00  0.00    +0.000 C 
ATOM     40  H   UNL     1      -9.110  -0.742  19.153  0.00  0.00    +0.000 HD
ATOM     41  H   UNL     1      -8.494  -0.166  20.706  0.00  0.00    +0.000 HD
ATOM     42  H   UNL     1     -10.221  -0.468  20.497  0.00  0.00    +0.000 HD
ENDBRANCH  26  39
ENDBRANCH   6  26
TORSDOF 6
ENDMDL
