MODEL 1
REMARK VINA RESULT:   -10.852      0.000      0.000
REMARK INTER + INTRA:         -13.989
REMARK INTER:                 -13.390
REMARK INTRA:                  -0.599
REMARK UNBOUND:                -0.599
REMARK  Name = 
REMARK  5 active torsions:
REMARK  status: ('A' for Active; 'I' for Inactive)
REMARK    1  A    between atoms: C_1  and  C_2
REMARK    2  A    between atoms: C_7  and  N_8
REMARK    3  A    between atoms: C_9  and  C_11
REMARK    4  A    between atoms: C_16  and  C_17
REMARK    5  A    between atoms: C_20  and  C_21
REMARK                            x       y       z     vdW  Elec       q    Type
REMARK                         _______ _______ _______ _____ _____    ______ ____
ROOT
ATOM      1  C   UNL     1     -10.594  -6.312  16.962  0.00  0.00    +0.000 C 
ATOM      2  S   UNL     1     -11.385  -5.114  15.754  0.00  0.00    +0.000 S 
ATOM      3  C   UNL     1     -11.545  -3.686  16.802  0.00  0.00    +0.000 A 
ATOM      4  N   UNL     1     -11.802  -2.439  16.476  0.00  0.00    +0.000 NA
ATOM      5  N   UNL     1     -11.768  -1.679  17.651  0.00  0.00    +0.000 NA
ATOM      6  C   UNL     1     -11.474  -2.482  18.657  0.00  0.00    +0.000 A 
ATOM      7  N   UNL     1     -11.236  -3.725  18.141  0.00  0.00    +0.000 N 
ATOM      8  N   UNL     1     -10.570  -4.763  18.819  0.00  0.00    +0.000 N 
ATOM      9  C   UNL     1      -9.663  -5.429  17.849  0.00  0.00    +0.000 C 
ATOM     10  H   UNL     1     -11.440  -6.689  17.553  0.00  0.00    +0.000 HD
ATOM     11  H   UNL     1     -11.197  -5.434  19.254  0.00  0.00    +0.000 HD
ATOM     12  H   UNL     1      -9.266  -4.705  17.120  0.00  0.00    +0.000 HD
ENDROOT
BRANCH   9  13
ATOM     13  C   UNL     1      -8.378  -5.638  18.622  0.00  0.00    +0.000 A 
ATOM     14  C   UNL     1      -8.129  -5.250  19.927  0.00  0.00    +0.000 A 
ATOM     15  C   UNL     1      -6.824  -5.318  20.443  0.00  0.00    +0.000 A 
ATOM     16  C   UNL     1      -5.764  -5.756  19.635  0.00  0.00    +0.000 A 
ATOM     17 CL   UNL     1      -4.154  -5.734  20.247  0.00  0.00    +0.000 Cl
ATOM     18  C   UNL     1      -5.986  -6.167  18.334  0.00  0.00    +0.000 A 
ATOM     19  C   UNL     1      -7.280  -6.116  17.832  0.00  0.00    +0.000 A 
ATOM     20  H   UNL     1      -8.922  -4.867  20.566  0.00  0.00    +0.000 HD
ATOM     21  H   UNL     1      -6.633  -5.007  21.463  0.00  0.00    +0.000 HD
ATOM     22  H   UNL     1      -5.174  -6.496  17.696  0.00  0.00    +0.000 HD
ATOM     23  H   UNL     1      -7.430  -6.396  16.793  0.00  0.00    +0.000 HD
ENDBRANCH   9  13
BRANCH   1  25
ATOM     24  N   UNL     1     -10.521  -8.814  16.722  0.00  0.00    +0.000 N 
ATOM     25  C   UNL     1      -9.984  -7.583  16.366  0.00  0.00    +0.000 C 
ATOM     26  O   UNL     1      -8.918  -7.497  15.752  0.00  0.00    +0.000 OA
ATOM     27  H   UNL     1     -11.534  -8.895  16.771  0.00  0.00    +0.000 HD
BRANCH  24  33
ATOM     28  C   UNL     1      -9.008 -10.492  17.794  0.00  0.00    +0.000 A 
ATOM     29  C   UNL     1      -8.304 -11.712  17.679  0.00  0.00    +0.000 A 
ATOM     30  C   UNL     1      -8.297 -12.445  16.508  0.00  0.00    +0.000 A 
ATOM     31  C   UNL     1      -9.004 -11.990  15.412  0.00  0.00    +0.000 A 
ATOM     32  C   UNL     1      -9.714 -10.788  15.502  0.00  0.00    +0.000 A 
ATOM     33  C   UNL     1      -9.758 -10.030  16.688  0.00  0.00    +0.000 A 
ATOM     34  H   UNL     1      -7.739 -12.099  18.541  0.00  0.00    +0.000 HD
ATOM     35  H   UNL     1      -7.768 -13.404  16.457  0.00  0.00    +0.000 HD
ATOM     36  H   UNL     1      -9.004 -12.551  14.482  0.00  0.00    +0.000 HD
ATOM     37  H   UNL     1     -10.226 -10.448  14.604  0.00  0.00    +0.000 HD
BRANCH  28  38
ATOM     38  C   UNL     1      -8.934  -9.758  19.098  0.00  0.00    +0.000 C 
ATOM     39  H   UNL     1      -8.146 -10.185  19.743  0.00  0.00    +0.000 HD
ATOM     40  H   UNL     1      -9.869  -9.844  19.656  0.00  0.00    +0.000 HD
ATOM     41  H   UNL     1      -8.685  -8.709  18.930  0.00  0.00    +0.000 HD
ENDBRANCH  28  38
ENDBRANCH  24  33
ENDBRANCH   1  25
BRANCH   6  42
ATOM     42  C   UNL     1     -11.421  -2.200  20.116  0.00  0.00    +0.000 C 
ATOM     43  H   UNL     1     -11.007  -1.213  20.327  0.00  0.00    +0.000 HD
ATOM     44  H   UNL     1     -10.817  -2.937  20.658  0.00  0.00    +0.000 HD
ATOM     45  H   UNL     1     -12.433  -2.240  20.533  0.00  0.00    +0.000 HD
ENDBRANCH   6  42
TORSDOF 5
ENDMDL
MODEL 2
REMARK VINA RESULT:   -10.817      1.339      1.894
REMARK INTER + INTRA:         -13.946
REMARK INTER:                 -14.001
REMARK INTRA:                   0.056
REMARK UNBOUND:                -0.599
REMARK  Name = 
REMARK  5 active torsions:
REMARK  status: ('A' for Active; 'I' for Inactive)
REMARK    1  A    between atoms: C_1  and  C_2
REMARK    2  A    between atoms: C_7  and  N_8
REMARK    3  A    between atoms: C_9  and  C_11
REMARK    4  A    between atoms: C_16  and  C_17
REMARK    5  A    between atoms: C_20  and  C_21
REMARK                            x       y       z     vdW  Elec       q    Type
REMARK                         _______ _______ _______ _____ _____    ______ ____
ROOT
ATOM      1  C   UNL     1     -10.112  -6.998  18.158  0.00  0.00    +0.000 C 
ATOM      2  S   UNL     1     -10.885  -6.583  16.500  0.00  0.00    +0.000 S 
ATOM      3  C   UNL     1     -11.214  -4.852  16.743  0.00  0.00    +0.000 A 
ATOM      4  N   UNL     1     -11.524  -3.932  15.857  0.00  0.00    +0.000 NA
ATOM      5  N   UNL     1     -11.629  -2.711  16.535  0.00  0.00    +0.000 NA
ATOM      6  C   UNL     1     -11.361  -2.920  17.811  0.00  0.00    +0.000 A 
ATOM      7  N   UNL     1     -11.005  -4.232  17.951  0.00  0.00    +0.000 N 
ATOM      8  N   UNL     1     -10.327  -4.766  19.064  0.00  0.00    +0.000 N 
ATOM      9  C   UNL     1      -9.309  -5.721  18.557  0.00  0.00    +0.000 C 
ATOM     10  H   UNL     1     -10.974  -7.132  18.827  0.00  0.00    +0.000 HD
ATOM     11  H   UNL     1     -10.941  -5.211  19.741  0.00  0.00    +0.000 HD
ATOM     12  H   UNL     1      -8.905  -5.390  17.587  0.00  0.00    +0.000 HD
ENDROOT
BRANCH   9  13
ATOM     13  C   UNL     1      -8.075  -5.426  19.383  0.00  0.00    +0.000 A 
ATOM     14  C   UNL     1      -8.006  -4.605  20.496  0.00  0.00    +0.000 A 
ATOM     15  C   UNL     1      -6.756  -4.256  21.034  0.00  0.00    +0.000 A 
ATOM     16  C   UNL     1      -5.573  -4.715  20.436  0.00  0.00    +0.000 A 
ATOM     17 CL   UNL     1      -4.048  -4.193  21.043  0.00  0.00    +0.000 Cl
ATOM     18  C   UNL     1      -5.613  -5.550  19.336  0.00  0.00    +0.000 A 
ATOM     19  C   UNL     1      -6.849  -5.909  18.817  0.00  0.00    +0.000 A 
ATOM     20  H   UNL     1      -8.904  -4.199  20.958  0.00  0.00    +0.000 HD
ATOM     21  H   UNL     1      -6.707  -3.608  21.901  0.00  0.00    +0.000 HD
ATOM     22  H   UNL     1      -4.706  -5.902  18.857  0.00  0.00    +0.000 HD
ATOM     23  H   UNL     1      -6.862  -6.526  17.923  0.00  0.00    +0.000 HD
ENDBRANCH   9  13
BRANCH   1  25
ATOM     24  N   UNL     1      -9.025  -8.996  17.083  0.00  0.00    +0.000 N 
ATOM     25  C   UNL     1      -9.379  -8.338  18.256  0.00  0.00    +0.000 C 
ATOM     26  O   UNL     1      -9.300  -8.892  19.354  0.00  0.00    +0.000 OA
ATOM     27  H   UNL     1      -8.646  -8.437  16.321  0.00  0.00    +0.000 HD
BRANCH  24  33
ATOM     28  C   UNL     1      -8.798 -11.126  15.793  0.00  0.00    +0.000 A 
ATOM     29  C   UNL     1      -8.597 -12.525  15.822  0.00  0.00    +0.000 A 
ATOM     30  C   UNL     1      -8.486 -13.224  17.008  0.00  0.00    +0.000 A 
ATOM     31  C   UNL     1      -8.561 -12.547  18.210  0.00  0.00    +0.000 A 
ATOM     32  C   UNL     1      -8.753 -11.162  18.209  0.00  0.00    +0.000 A 
ATOM     33  C   UNL     1      -8.847 -10.419  17.017  0.00  0.00    +0.000 A 
ATOM     34  H   UNL     1      -8.527 -13.084  14.877  0.00  0.00    +0.000 HD
ATOM     35  H   UNL     1      -8.300 -14.305  17.000  0.00  0.00    +0.000 HD
ATOM     36  H   UNL     1      -8.481 -13.083  19.152  0.00  0.00    +0.000 HD
ATOM     37  H   UNL     1      -8.843 -10.675  19.178  0.00  0.00    +0.000 HD
BRANCH  28  38
ATOM     38  C   UNL     1      -8.930 -10.461  14.457  0.00  0.00    +0.000 C 
ATOM     39  H   UNL     1      -8.486 -11.088  13.663  0.00  0.00    +0.000 HD
ATOM     40  H   UNL     1      -8.396  -9.509  14.432  0.00  0.00    +0.000 HD
ATOM     41  H   UNL     1      -9.982 -10.316  14.208  0.00  0.00    +0.000 HD
ENDBRANCH  28  38
ENDBRANCH  24  33
ENDBRANCH   1  25
BRANCH   6  42
ATOM     42  C   UNL     1     -11.436  -1.984  18.964  0.00  0.00    +0.000 C 
ATOM     43  H   UNL     1     -12.312  -1.337  18.910  0.00  0.00    +0.000 HD
ATOM     44  H   UNL     1     -10.550  -1.342  19.033  0.00  0.00    +0.000 HD
ATOM     45  H   UNL     1     -11.494  -2.558  19.896  0.00  0.00    +0.000 HD
ENDBRANCH   6  42
TORSDOF 5
ENDMDL
MODEL 3
REMARK VINA RESULT:   -10.218      1.465      2.192
REMARK INTER + INTRA:         -13.206
REMARK INTER:                 -12.833
REMARK INTRA:                  -0.373
REMARK UNBOUND:                -0.599
REMARK  Name = 
REMARK  5 active torsions:
REMARK  status: ('A' for Active; 'I' for Inactive)
REMARK    1  A    between atoms: C_1  and  C_2
REMARK    2  A    between atoms: C_7  and  N_8
REMARK    3  A    between atoms: C_9  and  C_11
REMARK    4  A    between atoms: C_16  and  C_17
REMARK    5  A    between atoms: C_20  and  C_21
REMARK                            x       y       z     vdW  Elec       q    Type
REMARK                         _______ _______ _______ _____ _____    ______ ____
ROOT
ATOM      1  C   UNL     1     -10.452  -6.484  18.164  0.00  0.00    +0.000 C 
ATOM      2  S   UNL     1     -11.231  -6.259  16.473  0.00  0.00    +0.000 S 
ATOM      3  C   UNL     1     -11.457  -4.495  16.474  0.00  0.00    +0.000 A 
ATOM      4  N   UNL     1     -11.731  -3.690  15.472  0.00  0.00    +0.000 NA
ATOM      5  N   UNL     1     -11.753  -2.383  15.973  0.00  0.00    +0.000 NA
ATOM      6  C   UNL     1     -11.473  -2.428  17.264  0.00  0.00    +0.000 A 
ATOM      7  N   UNL     1     -11.190  -3.726  17.582  0.00  0.00    +0.000 N 
ATOM      8  N   UNL     1     -10.523  -4.139  18.751  0.00  0.00    +0.000 N 
ATOM      9  C   UNL     1      -9.570  -5.214  18.371  0.00  0.00    +0.000 C 
ATOM     10  H   UNL     1     -11.307  -6.473  18.854  0.00  0.00    +0.000 HD
ATOM     11  H   UNL     1     -11.148  -4.449  19.490  0.00  0.00    +0.000 HD
ATOM     12  H   UNL     1      -9.166  -5.045  17.360  0.00  0.00    +0.000 HD
ENDROOT
BRANCH   9  13
ATOM     13  C   UNL     1      -8.306  -4.880  19.135  0.00  0.00    +0.000 A 
ATOM     14  C   UNL     1      -7.110  -5.575  19.092  0.00  0.00    +0.000 A 
ATOM     15  C   UNL     1      -6.091  -5.277  20.013  0.00  0.00    +0.000 A 
ATOM     16  C   UNL     1      -6.287  -4.294  20.993  0.00  0.00    +0.000 A 
ATOM     17 CL   UNL     1      -5.071  -4.014  22.181  0.00  0.00    +0.000 Cl
ATOM     18  C   UNL     1      -7.464  -3.572  21.049  0.00  0.00    +0.000 A 
ATOM     19  C   UNL     1      -8.463  -3.855  20.127  0.00  0.00    +0.000 A 
ATOM     20  H   UNL     1      -6.943  -6.372  18.370  0.00  0.00    +0.000 HD
ATOM     21  H   UNL     1      -5.159  -5.829  19.979  0.00  0.00    +0.000 HD
ATOM     22  H   UNL     1      -7.633  -2.818  21.810  0.00  0.00    +0.000 HD
ATOM     23  H   UNL     1      -9.400  -3.313  20.214  0.00  0.00    +0.000 HD
ENDBRANCH   9  13
BRANCH   1  25
ATOM     24  N   UNL     1      -9.086  -8.461  17.418  0.00  0.00    +0.000 N 
ATOM     25  C   UNL     1      -9.794  -7.839  18.440  0.00  0.00    +0.000 C 
ATOM     26  O   UNL     1     -10.074  -8.432  19.484  0.00  0.00    +0.000 OA
ATOM     27  H   UNL     1      -8.481  -7.883  16.839  0.00  0.00    +0.000 HD
BRANCH  24  33
ATOM     28  C   UNL     1      -9.156 -10.638  16.189  0.00  0.00    +0.000 A 
ATOM     29  C   UNL     1      -8.926 -12.032  16.214  0.00  0.00    +0.000 A 
ATOM     30  C   UNL     1      -8.499 -12.683  17.355  0.00  0.00    +0.000 A 
ATOM     31  C   UNL     1      -8.276 -11.960  18.511  0.00  0.00    +0.000 A 
ATOM     32  C   UNL     1      -8.489 -10.578  18.511  0.00  0.00    +0.000 A 
ATOM     33  C   UNL     1      -8.903  -9.883  17.358  0.00  0.00    +0.000 A 
ATOM     34  H   UNL     1      -9.091 -12.628  15.303  0.00  0.00    +0.000 HD
ATOM     35  H   UNL     1      -8.300 -13.761  17.337  0.00  0.00    +0.000 HD
ATOM     36  H   UNL     1      -7.945 -12.458  19.418  0.00  0.00    +0.000 HD
ATOM     37  H   UNL     1      -8.337 -10.054  19.452  0.00  0.00    +0.000 HD
BRANCH  28  38
ATOM     38  C   UNL     1      -9.642 -10.027  14.910  0.00  0.00    +0.000 C 
ATOM     39  H   UNL     1     -10.410  -9.260  15.110  0.00  0.00    +0.000 HD
ATOM     40  H   UNL     1     -10.113 -10.774  14.266  0.00  0.00    +0.000 HD
ATOM     41  H   UNL     1      -8.819  -9.537  14.387  0.00  0.00    +0.000 HD
ENDBRANCH  28  38
ENDBRANCH  24  33
ENDBRANCH   1  25
BRANCH   6  42
ATOM     42  C   UNL     1     -11.473  -1.338  18.275  0.00  0.00    +0.000 C 
ATOM     43  H   UNL     1     -10.499  -0.853  18.355  0.00  0.00    +0.000 HD
ATOM     44  H   UNL     1     -11.747  -1.700  19.273  0.00  0.00    +0.000 HD
ATOM     45  H   UNL     1     -12.210  -0.578  17.993  0.00  0.00    +0.000 HD
ENDBRANCH   6  42
TORSDOF 5
ENDMDL
MODEL 4
REMARK VINA RESULT:    -9.912      1.770      2.249
REMARK INTER + INTRA:         -12.828
REMARK INTER:                 -11.981
REMARK INTRA:                  -0.847
REMARK UNBOUND:                -0.599
REMARK  Name = 
REMARK  5 active torsions:
REMARK  status: ('A' for Active; 'I' for Inactive)
REMARK    1  A    between atoms: C_1  and  C_2
REMARK    2  A    between atoms: C_7  and  N_8
REMARK    3  A    between atoms: C_9  and  C_11
REMARK    4  A    between atoms: C_16  and  C_17
REMARK    5  A    between atoms: C_20  and  C_21
REMARK                            x       y       z     vdW  Elec       q    Type
REMARK                         _______ _______ _______ _____ _____    ______ ____
ROOT
ATOM      1  C   UNL     1     -11.029  -5.497  17.450  0.00  0.00    +0.000 C 
ATOM      2  S   UNL     1     -11.296  -5.163  15.624  0.00  0.00    +0.000 S 
ATOM      3  C   UNL     1     -11.272  -3.384  15.634  0.00  0.00    +0.000 A 
ATOM      4  N   UNL     1     -11.160  -2.548  14.626  0.00  0.00    +0.000 NA
ATOM      5  N   UNL     1     -11.135  -1.251  15.153  0.00  0.00    +0.000 NA
ATOM      6  C   UNL     1     -11.214  -1.336  16.469  0.00  0.00    +0.000 A 
ATOM      7  N   UNL     1     -11.205  -2.662  16.801  0.00  0.00    +0.000 N 
ATOM      8  N   UNL     1     -10.932  -3.166  18.087  0.00  0.00    +0.000 N 
ATOM      9  C   UNL     1     -10.069  -4.364  17.929  0.00  0.00    +0.000 C 
ATOM     10  H   UNL     1     -12.026  -5.365  17.893  0.00  0.00    +0.000 HD
ATOM     11  H   UNL     1     -11.767  -3.384  18.625  0.00  0.00    +0.000 HD
ATOM     12  H   UNL     1      -9.393  -4.253  17.066  0.00  0.00    +0.000 HD
ENDROOT
BRANCH   9  13
ATOM     13  C   UNL     1      -9.018  -4.213  19.008  0.00  0.00    +0.000 A 
ATOM     14  C   UNL     1      -8.056  -5.145  19.358  0.00  0.00    +0.000 A 
ATOM     15  C   UNL     1      -7.285  -4.957  20.518  0.00  0.00    +0.000 A 
ATOM     16  C   UNL     1      -7.500  -3.840  21.339  0.00  0.00    +0.000 A 
ATOM     17 CL   UNL     1      -6.622  -3.678  22.811  0.00  0.00    +0.000 Cl
ATOM     18  C   UNL     1      -8.441  -2.885  21.005  0.00  0.00    +0.000 A 
ATOM     19  C   UNL     1      -9.189  -3.063  19.848  0.00  0.00    +0.000 A 
ATOM     20  H   UNL     1      -7.894  -6.042  18.765  0.00  0.00    +0.000 HD
ATOM     21  H   UNL     1      -6.538  -5.693  20.791  0.00  0.00    +0.000 HD
ATOM     22  H   UNL     1      -8.625  -2.023  21.637  0.00  0.00    +0.000 HD
ATOM     23  H   UNL     1      -9.957  -2.328  19.626  0.00  0.00    +0.000 HD
ENDBRANCH   9  13
BRANCH   1  25
ATOM     24  N   UNL     1      -9.495  -7.486  17.315  0.00  0.00    +0.000 N 
ATOM     25  C   UNL     1     -10.658  -6.931  17.837  0.00  0.00    +0.000 C 
ATOM     26  O   UNL     1     -11.490  -7.619  18.431  0.00  0.00    +0.000 OA
ATOM     27  H   UNL     1      -8.663  -6.901  17.280  0.00  0.00    +0.000 HD
BRANCH  24  33
ATOM     28  C   UNL     1      -8.885  -9.744  18.200  0.00  0.00    +0.000 A 
ATOM     29  C   UNL     1      -8.760 -11.131  17.955  0.00  0.00    +0.000 A 
ATOM     30  C   UNL     1      -9.013 -11.679  16.713  0.00  0.00    +0.000 A 
ATOM     31  C   UNL     1      -9.410 -10.862  15.672  0.00  0.00    +0.000 A 
ATOM     32  C   UNL     1      -9.547  -9.487  15.891  0.00  0.00    +0.000 A 
ATOM     33  C   UNL     1      -9.319  -8.902  17.151  0.00  0.00    +0.000 A 
ATOM     34  H   UNL     1      -8.452 -11.802  18.770  0.00  0.00    +0.000 HD
ATOM     35  H   UNL     1      -8.938 -12.762  16.559  0.00  0.00    +0.000 HD
ATOM     36  H   UNL     1      -9.607 -11.276  14.688  0.00  0.00    +0.000 HD
ATOM     37  H   UNL     1      -9.826  -8.876  15.035  0.00  0.00    +0.000 HD
BRANCH  28  38
ATOM     38  C   UNL     1      -8.565  -9.242  19.576  0.00  0.00    +0.000 C 
ATOM     39  H   UNL     1      -7.840  -8.411  19.529  0.00  0.00    +0.000 HD
ATOM     40  H   UNL     1      -8.103 -10.020  20.186  0.00  0.00    +0.000 HD
ATOM     41  H   UNL     1      -9.467  -8.861  20.059  0.00  0.00    +0.000 HD
ENDBRANCH  28  38
ENDBRANCH  24  33
ENDBRANCH   1  25
BRANCH   6  42
ATOM     42  C   UNL     1     -11.333  -0.258  17.486  0.00  0.00    +0.000 C 
ATOM     43  H   UNL     1     -11.854   0.617  17.096  0.00  0.00    +0.000 HD
ATOM     44  H   UNL     1     -10.355   0.072  17.854  0.00  0.00    +0.000 HD
ATOM     45  H   UNL     1     -11.895  -0.632  18.350  0.00  0.00    +0.000 HD
ENDBRANCH   6  42
TORSDOF 5
ENDMDL
MODEL 5
REMARK VINA RESULT:    -9.608      1.888      2.609
REMARK INTER + INTRA:         -12.454
REMARK INTER:                 -11.707
REMARK INTRA:                  -0.746
REMARK UNBOUND:                -0.599
REMARK  Name = 
REMARK  5 active torsions:
REMARK  status: ('A' for Active; 'I' for Inactive)
REMARK    1  A    between atoms: C_1  and  C_2
REMARK    2  A    between atoms: C_7  and  N_8
REMARK    3  A    between atoms: C_9  and  C_11
REMARK    4  A    between atoms: C_16  and  C_17
REMARK    5  A    between atoms: C_20  and  C_21
REMARK                            x       y       z     vdW  Elec       q    Type
REMARK                         _______ _______ _______ _____ _____    ______ ____
ROOT
ATOM      1  C   UNL     1     -10.718  -5.661  17.353  0.00  0.00    +0.000 C 
ATOM      2  S   UNL     1     -10.573  -5.517  15.488  0.00  0.00    +0.000 S 
ATOM      3  C   UNL     1     -10.666  -3.750  15.311  0.00  0.00    +0.000 A 
ATOM      4  N   UNL     1     -10.376  -3.002  14.270  0.00  0.00    +0.000 NA
ATOM      5  N   UNL     1     -10.557  -1.665  14.645  0.00  0.00    +0.000 NA
ATOM      6  C   UNL     1     -10.935  -1.638  15.911  0.00  0.00    +0.000 A 
ATOM      7  N   UNL     1     -10.919  -2.922  16.378  0.00  0.00    +0.000 N 
ATOM      8  N   UNL     1     -10.921  -3.282  17.739  0.00  0.00    +0.000 N 
ATOM      9  C   UNL     1      -9.970  -4.410  17.910  0.00  0.00    +0.000 C 
ATOM     10  H   UNL     1     -11.797  -5.576  17.542  0.00  0.00    +0.000 HD
ATOM     11  H   UNL     1     -11.842  -3.522  18.095  0.00  0.00    +0.000 HD
ATOM     12  H   UNL     1      -9.121  -4.319  17.214  0.00  0.00    +0.000 HD
ENDROOT
BRANCH   9  13
ATOM     13  C   UNL     1      -9.211  -4.071  19.175  0.00  0.00    +0.000 A 
ATOM     14  C   UNL     1      -9.332  -2.912  19.922  0.00  0.00    +0.000 A 
ATOM     15  C   UNL     1      -8.414  -2.640  20.951  0.00  0.00    +0.000 A 
ATOM     16  C   UNL     1      -7.358  -3.526  21.211  0.00  0.00    +0.000 A 
ATOM     17 CL   UNL     1      -6.180  -3.129  22.402  0.00  0.00    +0.000 Cl
ATOM     18  C   UNL     1      -7.223  -4.699  20.493  0.00  0.00    +0.000 A 
ATOM     19  C   UNL     1      -8.143  -4.975  19.489  0.00  0.00    +0.000 A 
ATOM     20  H   UNL     1     -10.115  -2.184  19.718  0.00  0.00    +0.000 HD
ATOM     21  H   UNL     1      -8.509  -1.728  21.529  0.00  0.00    +0.000 HD
ATOM     22  H   UNL     1      -6.405  -5.387  20.676  0.00  0.00    +0.000 HD
ATOM     23  H   UNL     1      -7.995  -5.877  18.902  0.00  0.00    +0.000 HD
ENDBRANCH   9  13
BRANCH   1  25
ATOM     24  N   UNL     1      -9.248  -7.698  17.478  0.00  0.00    +0.000 N 
ATOM     25  C   UNL     1     -10.357  -7.016  17.966  0.00  0.00    +0.000 C 
ATOM     26  O   UNL     1     -11.162  -7.556  18.727  0.00  0.00    +0.000 OA
ATOM     27  H   UNL     1      -8.407  -7.160  17.283  0.00  0.00    +0.000 HD
BRANCH  24  33
ATOM     28  C   UNL     1      -9.531  -9.990  16.518  0.00  0.00    +0.000 A 
ATOM     29  C   UNL     1      -9.347 -11.383  16.675  0.00  0.00    +0.000 A 
ATOM     30  C   UNL     1      -8.814 -11.924  17.828  0.00  0.00    +0.000 A 
ATOM     31  C   UNL     1      -8.435 -11.092  18.864  0.00  0.00    +0.000 A 
ATOM     32  C   UNL     1      -8.601  -9.709  18.730  0.00  0.00    +0.000 A 
ATOM     33  C   UNL     1      -9.120  -9.126  17.559  0.00  0.00    +0.000 A 
ATOM     34  H   UNL     1      -9.635 -12.065  15.861  0.00  0.00    +0.000 HD
ATOM     35  H   UNL     1      -8.654 -13.006  17.910  0.00  0.00    +0.000 HD
ATOM     36  H   UNL     1      -8.020 -11.503  19.779  0.00  0.00    +0.000 HD
ATOM     37  H   UNL     1      -8.324  -9.095  19.584  0.00  0.00    +0.000 HD
BRANCH  28  38
ATOM     38  C   UNL     1     -10.139  -9.500  15.239  0.00  0.00    +0.000 C 
ATOM     39  H   UNL     1     -11.177  -9.864  15.136  0.00  0.00    +0.000 HD
ATOM     40  H   UNL     1      -9.594  -9.875  14.370  0.00  0.00    +0.000 HD
ATOM     41  H   UNL     1     -10.173  -8.410  15.228  0.00  0.00    +0.000 HD
ENDBRANCH  28  38
ENDBRANCH  24  33
ENDBRANCH   1  25
BRANCH   6  42
ATOM     42  C   UNL     1     -11.355  -0.486  16.753  0.00  0.00    +0.000 C 
ATOM     43  H   UNL     1     -12.379  -0.175  16.539  0.00  0.00    +0.000 HD
ATOM     44  H   UNL     1     -10.706   0.386  16.614  0.00  0.00    +0.000 HD
ATOM     45  H   UNL     1     -11.299  -0.768  17.810  0.00  0.00    +0.000 HD
ENDBRANCH   6  42
TORSDOF 5
ENDMDL
MODEL 6
REMARK VINA RESULT:    -8.883      3.277      4.629
REMARK INTER + INTRA:         -11.560
REMARK INTER:                 -11.015
REMARK INTRA:                  -0.545
REMARK UNBOUND:                -0.599
REMARK  Name = 
REMARK  5 active torsions:
REMARK  status: ('A' for Active; 'I' for Inactive)
REMARK    1  A    between atoms: C_1  and  C_2
REMARK    2  A    between atoms: C_7  and  N_8
REMARK    3  A    between atoms: C_9  and  C_11
REMARK    4  A    between atoms: C_16  and  C_17
REMARK    5  A    between atoms: C_20  and  C_21
REMARK                            x       y       z     vdW  Elec       q    Type
REMARK                         _______ _______ _______ _____ _____    ______ ____
ROOT
ATOM      1  C   UNL     1      -9.805  -5.525  16.855  0.00  0.00    +0.000 C 
ATOM      2  S   UNL     1     -10.789  -5.559  18.452  0.00  0.00    +0.000 S 
ATOM      3  C   UNL     1     -11.051  -3.816  18.685  0.00  0.00    +0.000 A 
ATOM      4  N   UNL     1     -11.884  -3.200  19.494  0.00  0.00    +0.000 NA
ATOM      5  N   UNL     1     -11.756  -1.825  19.268  0.00  0.00    +0.000 NA
ATOM      6  C   UNL     1     -10.860  -1.643  18.314  0.00  0.00    +0.000 A 
ATOM      7  N   UNL     1     -10.474  -2.875  17.866  0.00  0.00    +0.000 N 
ATOM      8  N   UNL     1      -9.808  -3.116  16.649  0.00  0.00    +0.000 N 
ATOM      9  C   UNL     1     -10.402  -4.335  16.043  0.00  0.00    +0.000 C 
ATOM     10  H   UNL     1      -8.781  -5.291  17.179  0.00  0.00    +0.000 HD
ATOM     11  H   UNL     1      -8.801  -3.208  16.746  0.00  0.00    +0.000 HD
ATOM     12  H   UNL     1     -11.476  -4.410  16.277  0.00  0.00    +0.000 HD
ENDROOT
BRANCH   9  13
ATOM     13  C   UNL     1     -10.555  -3.986  14.577  0.00  0.00    +0.000 A 
ATOM     14  C   UNL     1      -9.649  -3.290  13.797  0.00  0.00    +0.000 A 
ATOM     15  C   UNL     1     -10.016  -2.855  12.512  0.00  0.00    +0.000 A 
ATOM     16  C   UNL     1     -11.307  -3.101  12.022  0.00  0.00    +0.000 A 
ATOM     17 CL   UNL     1     -11.778  -2.470  10.491  0.00  0.00    +0.000 Cl
ATOM     18  C   UNL     1     -12.228  -3.809  12.773  0.00  0.00    +0.000 A 
ATOM     19  C   UNL     1     -11.856  -4.254  14.034  0.00  0.00    +0.000 A 
ATOM     20  H   UNL     1      -8.653  -3.048  14.164  0.00  0.00    +0.000 HD
ATOM     21  H   UNL     1      -9.305  -2.305  11.907  0.00  0.00    +0.000 HD
ATOM     22  H   UNL     1     -13.232  -3.995  12.411  0.00  0.00    +0.000 HD
ATOM     23  H   UNL     1     -12.606  -4.766  14.630  0.00  0.00    +0.000 HD
ENDBRANCH   9  13
BRANCH   1  25
ATOM     24  N   UNL     1     -10.205  -8.002  16.678  0.00  0.00    +0.000 N 
ATOM     25  C   UNL     1      -9.647  -6.858  16.119  0.00  0.00    +0.000 C 
ATOM     26  O   UNL     1      -8.867  -6.920  15.166  0.00  0.00    +0.000 OA
ATOM     27  H   UNL     1     -11.135  -7.928  17.083  0.00  0.00    +0.000 HD
BRANCH  24  33
ATOM     28  C   UNL     1      -9.087 -10.118  17.406  0.00  0.00    +0.000 A 
ATOM     29  C   UNL     1      -8.637 -11.412  17.060  0.00  0.00    +0.000 A 
ATOM     30  C   UNL     1      -8.743 -11.904  15.774  0.00  0.00    +0.000 A 
ATOM     31  C   UNL     1      -9.313 -11.122  14.788  0.00  0.00    +0.000 A 
ATOM     32  C   UNL     1      -9.773  -9.840  15.106  0.00  0.00    +0.000 A 
ATOM     33  C   UNL     1      -9.699  -9.319  16.412  0.00  0.00    +0.000 A 
ATOM     34  H   UNL     1      -8.186 -12.055  17.831  0.00  0.00    +0.000 HD
ATOM     35  H   UNL     1      -8.414 -12.923  15.541  0.00  0.00    +0.000 HD
ATOM     36  H   UNL     1      -9.399 -11.492  13.770  0.00  0.00    +0.000 HD
ATOM     37  H   UNL     1     -10.180  -9.245  14.291  0.00  0.00    +0.000 HD
BRANCH  28  38
ATOM     38  C   UNL     1      -8.906  -9.665  18.823  0.00  0.00    +0.000 C 
ATOM     39  H   UNL     1      -8.592 -10.507  19.465  0.00  0.00    +0.000 HD
ATOM     40  H   UNL     1      -9.842  -9.290  19.243  0.00  0.00    +0.000 HD
ATOM     41  H   UNL     1      -8.129  -8.902  18.882  0.00  0.00    +0.000 HD
ENDBRANCH  28  38
ENDBRANCH  24  33
ENDBRANCH   1  25
BRANCH   6  42
ATOM     42  C   UNL     1     -10.285  -0.381  17.778  0.00  0.00    +0.000 C 
ATOM     43  H   UNL     1      -9.713  -0.548  16.864  0.00  0.00    +0.000 HD
ATOM     44  H   UNL     1      -9.623   0.111  18.500  0.00  0.00    +0.000 HD
ATOM     45  H   UNL     1     -11.095   0.321  17.549  0.00  0.00    +0.000 HD
ENDBRANCH   6  42
TORSDOF 5
ENDMDL
MODEL 7
REMARK VINA RESULT:    -8.832      1.696      2.555
REMARK INTER + INTRA:         -11.496
REMARK INTER:                 -10.739
REMARK INTRA:                  -0.758
REMARK UNBOUND:                -0.599
REMARK  Name = 
REMARK  5 active torsions:
REMARK  status: ('A' for Active; 'I' for Inactive)
REMARK    1  A    between atoms: C_1  and  C_2
REMARK    2  A    between atoms: C_7  and  N_8
REMARK    3  A    between atoms: C_9  and  C_11
REMARK    4  A    between atoms: C_16  and  C_17
REMARK    5  A    between atoms: C_20  and  C_21
REMARK                            x       y       z     vdW  Elec       q    Type
REMARK                         _______ _______ _______ _____ _____    ______ ____
ROOT
ATOM      1  C   UNL     1     -10.568  -4.848  16.930  0.00  0.00    +0.000 C 
ATOM      2  S   UNL     1     -10.646  -3.977  15.271  0.00  0.00    +0.000 S 
ATOM      3  C   UNL     1     -10.994  -2.319  15.813  0.00  0.00    +0.000 A 
ATOM      4  N   UNL     1     -10.922  -1.192  15.142  0.00  0.00    +0.000 NA
ATOM      5  N   UNL     1     -11.240  -0.153  16.025  0.00  0.00    +0.000 NA
ATOM      6  C   UNL     1     -11.480  -0.677  17.214  0.00  0.00    +0.000 A 
ATOM      7  N   UNL     1     -11.240  -2.020  17.132  0.00  0.00    +0.000 N 
ATOM      8  N   UNL     1     -11.047  -2.871  18.237  0.00  0.00    +0.000 N 
ATOM      9  C   UNL     1      -9.940  -3.802  17.902  0.00  0.00    +0.000 C 
ATOM     10  H   UNL     1     -11.622  -5.024  17.187  0.00  0.00    +0.000 HD
ATOM     11  H   UNL     1     -11.884  -3.379  18.511  0.00  0.00    +0.000 HD
ATOM     12  H   UNL     1      -9.191  -3.311  17.262  0.00  0.00    +0.000 HD
ENDROOT
BRANCH   9  13
ATOM     13  C   UNL     1      -9.102  -3.854  19.162  0.00  0.00    +0.000 A 
ATOM     14  C   UNL     1      -9.099  -2.925  20.188  0.00  0.00    +0.000 A 
ATOM     15  C   UNL     1      -8.118  -2.991  21.192  0.00  0.00    +0.000 A 
ATOM     16  C   UNL     1      -7.124  -3.980  21.149  0.00  0.00    +0.000 A 
ATOM     17 CL   UNL     1      -5.867  -3.983  22.326  0.00  0.00    +0.000 Cl
ATOM     18  C   UNL     1      -7.113  -4.930  20.146  0.00  0.00    +0.000 A 
ATOM     19  C   UNL     1      -8.094  -4.875  19.165  0.00  0.00    +0.000 A 
ATOM     20  H   UNL     1      -9.831  -2.121  20.228  0.00  0.00    +0.000 HD
ATOM     21  H   UNL     1      -8.116  -2.257  21.990  0.00  0.00    +0.000 HD
ATOM     22  H   UNL     1      -6.343  -5.692  20.094  0.00  0.00    +0.000 HD
ATOM     23  H   UNL     1      -8.043  -5.600  18.358  0.00  0.00    +0.000 HD
ENDBRANCH   9  13
BRANCH   1  25
ATOM     24  N   UNL     1     -10.527  -7.222  17.762  0.00  0.00    +0.000 N 
ATOM     25  C   UNL     1      -9.963  -6.254  16.938  0.00  0.00    +0.000 C 
ATOM     26  O   UNL     1      -8.882  -6.438  16.376  0.00  0.00    +0.000 OA
ATOM     27  H   UNL     1     -11.543  -7.271  17.812  0.00  0.00    +0.000 HD
BRANCH  24  33
ATOM     28  C   UNL     1      -9.609  -9.535  17.522  0.00  0.00    +0.000 A 
ATOM     29  C   UNL     1      -8.841 -10.581  18.083  0.00  0.00    +0.000 A 
ATOM     30  C   UNL     1      -8.289 -10.486  19.345  0.00  0.00    +0.000 A 
ATOM     31  C   UNL     1      -8.475  -9.337  20.089  0.00  0.00    +0.000 A 
ATOM     32  C   UNL     1      -9.226  -8.285  19.554  0.00  0.00    +0.000 A 
ATOM     33  C   UNL     1      -9.783  -8.343  18.262  0.00  0.00    +0.000 A 
ATOM     34  H   UNL     1      -8.673 -11.503  17.506  0.00  0.00    +0.000 HD
ATOM     35  H   UNL     1      -7.672 -11.301  19.743  0.00  0.00    +0.000 HD
ATOM     36  H   UNL     1      -8.052  -9.249  21.086  0.00  0.00    +0.000 HD
ATOM     37  H   UNL     1      -9.379  -7.415  20.188  0.00  0.00    +0.000 HD
BRANCH  28  38
ATOM     38  C   UNL     1     -10.187  -9.742  16.155  0.00  0.00    +0.000 C 
ATOM     39  H   UNL     1     -11.267  -9.965  16.216  0.00  0.00    +0.000 HD
ATOM     40  H   UNL     1      -9.724 -10.595  15.652  0.00  0.00    +0.000 HD
ATOM     41  H   UNL     1     -10.074  -8.838  15.554  0.00  0.00    +0.000 HD
ENDBRANCH  28  38
ENDBRANCH  24  33
ENDBRANCH   1  25
BRANCH   6  42
ATOM     42  C   UNL     1     -11.959  -0.025  18.461  0.00  0.00    +0.000 C 
ATOM     43  H   UNL     1     -11.160   0.093  19.195  0.00  0.00    +0.000 HD
ATOM     44  H   UNL     1     -12.768  -0.590  18.938  0.00  0.00    +0.000 HD
ATOM     45  H   UNL     1     -12.353   0.970  18.225  0.00  0.00    +0.000 HD
ENDBRANCH   6  42
TORSDOF 5
ENDMDL
MODEL 8
REMARK VINA RESULT:    -8.669      3.956      6.142
REMARK INTER + INTRA:         -11.295
REMARK INTER:                 -10.469
REMARK INTRA:                  -0.826
REMARK UNBOUND:                -0.599
REMARK  Name = 
REMARK  5 active torsions:
REMARK  status: ('A' for Active; 'I' for Inactive)
REMARK    1  A    between atoms: C_1  and  C_2
REMARK    2  A    between atoms: C_7  and  N_8
REMARK    3  A    between atoms: C_9  and  C_11
REMARK    4  A    between atoms: C_16  and  C_17
REMARK    5  A    between atoms: C_20  and  C_21
REMARK                            x       y       z     vdW  Elec       q    Type
REMARK                         _______ _______ _______ _____ _____    ______ ____
ROOT
ATOM      1  C   UNL     1     -10.259  -1.920  21.092  0.00  0.00    +0.000 C 
ATOM      2  S   UNL     1     -10.590  -0.142  21.593  0.00  0.00    +0.000 S 
ATOM      3  C   UNL     1      -9.969  -0.175  23.259  0.00  0.00    +0.000 A 
ATOM      4  N   UNL     1      -9.689   0.827  24.063  0.00  0.00    +0.000 NA
ATOM      5  N   UNL     1      -9.174   0.288  25.248  0.00  0.00    +0.000 NA
ATOM      6  C   UNL     1      -9.137  -1.027  25.124  0.00  0.00    +0.000 A 
ATOM      7  N   UNL     1      -9.539  -1.336  23.855  0.00  0.00    +0.000 N 
ATOM      8  N   UNL     1      -9.317  -2.574  23.221  0.00  0.00    +0.000 N 
ATOM      9  C   UNL     1      -8.929  -2.298  21.815  0.00  0.00    +0.000 C 
ATOM     10  H   UNL     1     -11.101  -2.478  21.525  0.00  0.00    +0.000 HD
ATOM     11  H   UNL     1     -10.115  -3.203  23.265  0.00  0.00    +0.000 HD
ATOM     12  H   UNL     1      -8.351  -1.363  21.740  0.00  0.00    +0.000 HD
ENDROOT
BRANCH   9  13
ATOM     13  C   UNL     1      -7.780  -3.248  21.551  0.00  0.00    +0.000 A 
ATOM     14  C   UNL     1      -6.462  -3.073  21.934  0.00  0.00    +0.000 A 
ATOM     15  C   UNL     1      -5.466  -3.931  21.437  0.00  0.00    +0.000 A 
ATOM     16  C   UNL     1      -5.796  -4.953  20.534  0.00  0.00    +0.000 A 
ATOM     17 CL   UNL     1      -4.552  -5.928  19.852  0.00  0.00    +0.000 Cl
ATOM     18  C   UNL     1      -7.107  -5.162  20.148  0.00  0.00    +0.000 A 
ATOM     19  C   UNL     1      -8.092  -4.324  20.654  0.00  0.00    +0.000 A 
ATOM     20  H   UNL     1      -6.168  -2.265  22.600  0.00  0.00    +0.000 HD
ATOM     21  H   UNL     1      -4.435  -3.786  21.735  0.00  0.00    +0.000 HD
ATOM     22  H   UNL     1      -7.373  -5.940  19.441  0.00  0.00    +0.000 HD
ATOM     23  H   UNL     1      -9.109  -4.472  20.303  0.00  0.00    +0.000 HD
ENDBRANCH   9  13
BRANCH   1  25
ATOM     24  N   UNL     1     -11.245  -3.220  19.178  0.00  0.00    +0.000 N 
ATOM     25  C   UNL     1     -10.353  -2.239  19.598  0.00  0.00    +0.000 C 
ATOM     26  O   UNL     1      -9.505  -1.770  18.837  0.00  0.00    +0.000 OA
ATOM     27  H   UNL     1     -12.169  -3.237  19.604  0.00  0.00    +0.000 HD
BRANCH  24  33
ATOM     28  C   UNL     1     -11.619  -3.572  16.730  0.00  0.00    +0.000 A 
ATOM     29  C   UNL     1     -11.364  -4.357  15.583  0.00  0.00    +0.000 A 
ATOM     30  C   UNL     1     -10.617  -5.517  15.642  0.00  0.00    +0.000 A 
ATOM     31  C   UNL     1     -10.088  -5.930  16.850  0.00  0.00    +0.000 A 
ATOM     32  C   UNL     1     -10.320  -5.166  17.999  0.00  0.00    +0.000 A 
ATOM     33  C   UNL     1     -11.058  -3.968  17.966  0.00  0.00    +0.000 A 
ATOM     34  H   UNL     1     -11.770  -4.045  14.609  0.00  0.00    +0.000 HD
ATOM     35  H   UNL     1     -10.410  -6.091  14.730  0.00  0.00    +0.000 HD
ATOM     36  H   UNL     1      -9.503  -6.843  16.914  0.00  0.00    +0.000 HD
ATOM     37  H   UNL     1      -9.916  -5.547  18.934  0.00  0.00    +0.000 HD
BRANCH  28  38
ATOM     38  C   UNL     1     -12.460  -2.343  16.569  0.00  0.00    +0.000 C 
ATOM     39  H   UNL     1     -13.461  -2.493  17.010  0.00  0.00    +0.000 HD
ATOM     40  H   UNL     1     -12.621  -2.106  15.515  0.00  0.00    +0.000 HD
ATOM     41  H   UNL     1     -12.000  -1.497  17.084  0.00  0.00    +0.000 HD
ENDBRANCH  28  38
ENDBRANCH  24  33
ENDBRANCH   1  25
BRANCH   6  42
ATOM     42  C   UNL     1      -8.778  -2.067  26.125  0.00  0.00    +0.000 C 
ATOM     43  H   UNL     1      -9.657  -2.474  26.626  0.00  0.00    +0.000 HD
ATOM     44  H   UNL     1      -8.103  -1.681  26.897  0.00  0.00    +0.000 HD
ATOM     45  H   UNL     1      -8.260  -2.892  25.623  0.00  0.00    +0.000 HD
ENDBRANCH   6  42
TORSDOF 5
ENDMDL
MODEL 9
REMARK VINA RESULT:    -8.581      3.592      7.331
REMARK INTER + INTRA:         -11.187
REMARK INTER:                 -10.327
REMARK INTRA:                  -0.860
REMARK UNBOUND:                -0.599
REMARK  Name = 
REMARK  5 active torsions:
REMARK  status: ('A' for Active; 'I' for Inactive)
REMARK    1  A    between atoms: C_1  and  C_2
REMARK    2  A    between atoms: C_7  and  N_8
REMARK    3  A    between atoms: C_9  and  C_11
REMARK    4  A    between atoms: C_16  and  C_17
REMARK    5  A    between atoms: C_20  and  C_21
REMARK                            x       y       z     vdW  Elec       q    Type
REMARK                         _______ _______ _______ _____ _____    ______ ____
ROOT
ATOM      1  C   UNL     1      -9.526  -2.644  19.435  0.00  0.00    +0.000 C 
ATOM      2  S   UNL     1     -10.975  -1.513  19.058  0.00  0.00    +0.000 S 
ATOM      3  C   UNL     1     -11.381  -2.075  17.420  0.00  0.00    +0.000 A 
ATOM      4  N   UNL     1     -12.461  -1.848  16.707  0.00  0.00    +0.000 NA
ATOM      5  N   UNL     1     -12.332  -2.555  15.506  0.00  0.00    +0.000 NA
ATOM      6  C   UNL     1     -11.183  -3.208  15.530  0.00  0.00    +0.000 A 
ATOM      7  N   UNL     1     -10.614  -3.001  16.755  0.00  0.00    +0.000 N 
ATOM      8  N   UNL     1      -9.576  -3.781  17.301  0.00  0.00    +0.000 N 
ATOM      9  C   UNL     1      -9.880  -3.994  18.739  0.00  0.00    +0.000 C 
ATOM     10  H   UNL     1      -8.676  -2.164  18.928  0.00  0.00    +0.000 HD
ATOM     11  H   UNL     1      -8.653  -3.375  17.178  0.00  0.00    +0.000 HD
ATOM     12  H   UNL     1     -10.967  -4.063  18.907  0.00  0.00    +0.000 HD
ENDROOT
BRANCH   9  13
ATOM     13  C   UNL     1      -9.563  -5.456  18.976  0.00  0.00    +0.000 A 
ATOM     14  C   UNL     1      -8.414  -5.966  19.554  0.00  0.00    +0.000 A 
ATOM     15  C   UNL     1      -8.162  -7.348  19.515  0.00  0.00    +0.000 A 
ATOM     16  C   UNL     1      -9.058  -8.214  18.873  0.00  0.00    +0.000 A 
ATOM     17 CL   UNL     1      -8.684  -9.890  18.741  0.00  0.00    +0.000 Cl
ATOM     18  C   UNL     1     -10.222  -7.735  18.302  0.00  0.00    +0.000 A 
ATOM     19  C   UNL     1     -10.478  -6.371  18.358  0.00  0.00    +0.000 A 
ATOM     20  H   UNL     1      -7.678  -5.315  20.024  0.00  0.00    +0.000 HD
ATOM     21  H   UNL     1      -7.257  -7.742  19.964  0.00  0.00    +0.000 HD
ATOM     22  H   UNL     1     -10.917  -8.392  17.792  0.00  0.00    +0.000 HD
ATOM     23  H   UNL     1     -11.373  -6.005  17.862  0.00  0.00    +0.000 HD
ENDBRANCH   9  13
BRANCH   1  25
ATOM     24  N   UNL     1     -10.015  -2.520  21.899  0.00  0.00    +0.000 N 
ATOM     25  C   UNL     1      -9.073  -2.713  20.895  0.00  0.00    +0.000 C 
ATOM     26  O   UNL     1      -7.865  -2.736  21.141  0.00  0.00    +0.000 OA
ATOM     27  H   UNL     1     -10.925  -2.961  21.788  0.00  0.00    +0.000 HD
BRANCH  24  33
ATOM     28  C   UNL     1      -9.662  -0.659  23.532  0.00  0.00    +0.000 A 
ATOM     29  C   UNL     1      -9.327  -0.272  24.850  0.00  0.00    +0.000 A 
ATOM     30  C   UNL     1      -8.968  -1.194  25.813  0.00  0.00    +0.000 A 
ATOM     31  C   UNL     1      -8.941  -2.539  25.497  0.00  0.00    +0.000 A 
ATOM     32  C   UNL     1      -9.275  -2.948  24.202  0.00  0.00    +0.000 A 
ATOM     33  C   UNL     1      -9.666  -2.035  23.205  0.00  0.00    +0.000 A 
ATOM     34  H   UNL     1      -9.348   0.793  25.127  0.00  0.00    +0.000 HD
ATOM     35  H   UNL     1      -8.743  -0.869  26.836  0.00  0.00    +0.000 HD
ATOM     36  H   UNL     1      -8.655  -3.276  26.242  0.00  0.00    +0.000 HD
ATOM     37  H   UNL     1      -9.205  -4.012  23.987  0.00  0.00    +0.000 HD
BRANCH  28  38
ATOM     38  C   UNL     1     -10.015   0.418  22.551  0.00  0.00    +0.000 C 
ATOM     39  H   UNL     1      -9.520   1.368  22.819  0.00  0.00    +0.000 HD
ATOM     40  H   UNL     1     -11.089   0.619  22.552  0.00  0.00    +0.000 HD
ATOM     41  H   UNL     1      -9.678   0.144  21.550  0.00  0.00    +0.000 HD
ENDBRANCH  28  38
ENDBRANCH  24  33
ENDBRANCH   1  25
BRANCH   6  42
ATOM     42  C   UNL     1     -10.525  -4.015  14.469  0.00  0.00    +0.000 C 
ATOM     43  H   UNL     1     -10.210  -3.401  13.624  0.00  0.00    +0.000 HD
ATOM     44  H   UNL     1     -11.181  -4.803  14.081  0.00  0.00    +0.000 HD
ATOM     45  H   UNL     1      -9.637  -4.506  14.882  0.00  0.00    +0.000 HD
ENDBRANCH   6  42
TORSDOF 5
ENDMDL
