MODEL 1
REMARK VINA RESULT:   -11.086      0.000      0.000
REMARK INTER + INTRA:         -14.229
REMARK INTER:                 -13.678
REMARK INTRA:                  -0.551
REMARK UNBOUND:                -0.551
REMARK  Name = 
REMARK  4 active torsions:
REMARK  status: ('A' for Active; 'I' for Inactive)
REMARK    1  A    between atoms: C_2  and  C_14
REMARK    2  A    between atoms: N_3  and  C_4
REMARK    3  A    between atoms: C_4  and  C_5
REMARK    4  A    between atoms: C_16  and  C_17
REMARK                            x       y       z     vdW  Elec       q    Type
REMARK                         _______ _______ _______ _____ _____    ______ ____
ROOT
ATOM      1  O   UNL     1      -8.962  -4.865  18.765  0.00  0.00    +0.000 OA
ATOM      2  C   UNL     1      -8.375  -5.701  19.446  0.00  0.00    +0.000 C 
ATOM      3  N   UNL     1      -7.466  -5.368  20.425  0.00  0.00    +0.000 N 
ATOM      4  H   UNL     1      -6.870  -6.088  20.804  0.00  0.00    +0.000 HD
ENDROOT
BRANCH   2   5
ATOM      5  C   UNL     1      -8.579  -7.112  19.264  0.00  0.00    +0.000 A 
ATOM      6  C   UNL     1      -8.503  -7.924  18.153  0.00  0.00    +0.000 A 
ATOM      7  C   UNL     1      -8.792  -9.239  18.598  0.00  0.00    +0.000 A 
ATOM      8  N   UNL     1      -9.017  -9.248  19.922  0.00  0.00    +0.000 NA
ATOM      9  N   UNL     1      -8.885  -7.960  20.292  0.00  0.00    +0.000 N 
ATOM     10  H   UNL     1      -8.245  -7.623  17.148  0.00  0.00    +0.000 HD
ATOM     11  H   UNL     1      -9.009  -7.716  21.274  0.00  0.00    +0.000 HD
BRANCH   7  12
ATOM     12  C   UNL     1      -8.821 -10.447  17.775  0.00  0.00    +0.000 A 
ATOM     13  C   UNL     1      -8.474 -11.692  18.317  0.00  0.00    +0.000 A 
ATOM     14  C   UNL     1      -8.446 -12.833  17.509  0.00  0.00    +0.000 A 
ATOM     15  C   UNL     1      -8.776 -12.735  16.158  0.00  0.00    +0.000 A 
ATOM     16 BR   UNL     1      -8.723 -14.272  15.061  0.00  0.00    +0.000 Br
ATOM     17  C   UNL     1      -9.141 -11.510  15.607  0.00  0.00    +0.000 A 
ATOM     18  C   UNL     1      -9.165 -10.369  16.415  0.00  0.00    +0.000 A 
ATOM     19  H   UNL     1      -8.205 -11.773  19.368  0.00  0.00    +0.000 HD
ATOM     20  H   UNL     1      -8.162 -13.787  17.943  0.00  0.00    +0.000 HD
ATOM     21  H   UNL     1      -9.405 -11.426  14.556  0.00  0.00    +0.000 HD
ATOM     22  H   UNL     1      -9.460  -9.426  15.966  0.00  0.00    +0.000 HD
ENDBRANCH   7  12
ENDBRANCH   2   5
BRANCH   3  23
ATOM     23  C   UNL     1      -7.096  -3.995  20.666  0.00  0.00    +0.000 C 
ATOM     24  H   UNL     1      -7.157  -3.421  19.735  0.00  0.00    +0.000 HD
ATOM     25  H   UNL     1      -6.047  -3.989  20.979  0.00  0.00    +0.000 HD
BRANCH  23  26
ATOM     26  C   UNL     1      -7.964  -3.358  21.722  0.00  0.00    +0.000 A 
ATOM     27  C   UNL     1      -8.985  -2.454  21.342  0.00  0.00    +0.000 A 
ATOM     28  C   UNL     1      -9.783  -1.818  22.299  0.00  0.00    +0.000 A 
ATOM     29  C   UNL     1      -9.547  -2.108  23.624  0.00  0.00    +0.000 A 
ATOM     30  C   UNL     1      -8.569  -2.995  24.006  0.00  0.00    +0.000 A 
ATOM     31  C   UNL     1      -7.767  -3.640  23.085  0.00  0.00    +0.000 A 
ATOM     32  O   UNL     1      -8.495  -3.132  25.357  0.00  0.00    +0.000 OA
ATOM     33  C   UNL     1      -9.517  -2.204  25.782  0.00  0.00    +0.000 C 
ATOM     34  O   UNL     1     -10.213  -1.579  24.685  0.00  0.00    +0.000 OA
ATOM     35  H   UNL     1      -9.148  -2.231  20.288  0.00  0.00    +0.000 HD
ATOM     36  H   UNL     1     -10.553  -1.111  22.011  0.00  0.00    +0.000 HD
ATOM     37  H   UNL     1      -6.996  -4.326  23.420  0.00  0.00    +0.000 HD
ATOM     38  H   UNL     1      -9.049  -1.422  26.392  0.00  0.00    +0.000 HD
ATOM     39  H   UNL     1     -10.245  -2.741  26.401  0.00  0.00    +0.000 HD
ENDBRANCH  23  26
ENDBRANCH   3  23
TORSDOF 4
ENDMDL
MODEL 2
REMARK VINA RESULT:   -10.781      0.903      1.440
REMARK INTER + INTRA:         -13.853
REMARK INTER:                 -13.369
REMARK INTRA:                  -0.484
REMARK UNBOUND:                -0.551
REMARK  Name = 
REMARK  4 active torsions:
REMARK  status: ('A' for Active; 'I' for Inactive)
REMARK    1  A    between atoms: C_2  and  C_14
REMARK    2  A    between atoms: N_3  and  C_4
REMARK    3  A    between atoms: C_4  and  C_5
REMARK    4  A    between atoms: C_16  and  C_17
REMARK                            x       y       z     vdW  Elec       q    Type
REMARK                         _______ _______ _______ _____ _____    ______ ____
ROOT
ATOM      1  O   UNL     1     -10.212  -5.056  18.209  0.00  0.00    +0.000 OA
ATOM      2  C   UNL     1      -9.372  -5.667  18.864  0.00  0.00    +0.000 C 
ATOM      3  N   UNL     1      -8.488  -5.048  19.717  0.00  0.00    +0.000 N 
ATOM      4  H   UNL     1      -7.697  -5.569  20.064  0.00  0.00    +0.000 HD
ENDROOT
BRANCH   2   5
ATOM      5  C   UNL     1      -9.233  -7.096  18.780  0.00  0.00    +0.000 A 
ATOM      6  C   UNL     1      -9.258  -7.969  17.714  0.00  0.00    +0.000 A 
ATOM      7  C   UNL     1      -9.046  -9.264  18.252  0.00  0.00    +0.000 A 
ATOM      8  N   UNL     1      -8.880  -9.198  19.583  0.00  0.00    +0.000 NA
ATOM      9  N   UNL     1      -8.999  -7.887  19.870  0.00  0.00    +0.000 N 
ATOM     10  H   UNL     1      -9.382  -7.714  16.672  0.00  0.00    +0.000 HD
ATOM     11  H   UNL     1      -8.904  -7.586  20.839  0.00  0.00    +0.000 HD
BRANCH   7  12
ATOM     12  C   UNL     1      -8.980 -10.516  17.501  0.00  0.00    +0.000 A 
ATOM     13  C   UNL     1      -8.652 -11.719  18.140  0.00  0.00    +0.000 A 
ATOM     14  C   UNL     1      -8.532 -12.902  17.404  0.00  0.00    +0.000 A 
ATOM     15  C   UNL     1      -8.751 -12.888  16.028  0.00  0.00    +0.000 A 
ATOM     16 BR   UNL     1      -8.573 -14.483  15.029  0.00  0.00    +0.000 Br
ATOM     17  C   UNL     1      -9.095 -11.707  15.379  0.00  0.00    +0.000 A 
ATOM     18  C   UNL     1      -9.212 -10.524  16.115  0.00  0.00    +0.000 A 
ATOM     19  H   UNL     1      -8.469 -11.734  19.212  0.00  0.00    +0.000 HD
ATOM     20  H   UNL     1      -8.264 -13.823  17.915  0.00  0.00    +0.000 HD
ATOM     21  H   UNL     1      -9.273 -11.689  14.307  0.00  0.00    +0.000 HD
ATOM     22  H   UNL     1      -9.489  -9.615  15.589  0.00  0.00    +0.000 HD
ENDBRANCH   7  12
ENDBRANCH   2   5
BRANCH   3  23
ATOM     23  C   UNL     1      -8.452  -3.612  19.842  0.00  0.00    +0.000 C 
ATOM     24  H   UNL     1      -9.304  -3.167  19.317  0.00  0.00    +0.000 HD
ATOM     25  H   UNL     1      -7.546  -3.261  19.336  0.00  0.00    +0.000 HD
BRANCH  23  26
ATOM     26  C   UNL     1      -8.451  -3.175  21.286  0.00  0.00    +0.000 A 
ATOM     27  C   UNL     1      -7.865  -4.004  22.272  0.00  0.00    +0.000 A 
ATOM     28  C   UNL     1      -7.881  -3.645  23.624  0.00  0.00    +0.000 A 
ATOM     29  C   UNL     1      -8.479  -2.451  23.962  0.00  0.00    +0.000 A 
ATOM     30  C   UNL     1      -9.038  -1.630  23.013  0.00  0.00    +0.000 A 
ATOM     31  C   UNL     1      -9.036  -1.956  21.670  0.00  0.00    +0.000 A 
ATOM     32  O   UNL     1      -9.582  -0.508  23.556  0.00  0.00    +0.000 OA
ATOM     33  C   UNL     1      -9.329  -0.734  24.960  0.00  0.00    +0.000 C 
ATOM     34  O   UNL     1      -8.596  -1.949  25.220  0.00  0.00    +0.000 OA
ATOM     35  H   UNL     1      -7.406  -4.949  21.983  0.00  0.00    +0.000 HD
ATOM     36  H   UNL     1      -7.448  -4.287  24.383  0.00  0.00    +0.000 HD
ATOM     37  H   UNL     1      -9.497  -1.291  20.948  0.00  0.00    +0.000 HD
ATOM     38  H   UNL     1     -10.290  -0.786  25.487  0.00  0.00    +0.000 HD
ATOM     39  H   UNL     1      -8.758   0.113  25.357  0.00  0.00    +0.000 HD
ENDBRANCH  23  26
ENDBRANCH   3  23
TORSDOF 4
ENDMDL
MODEL 3
REMARK VINA RESULT:   -10.597      1.416      1.625
REMARK INTER + INTRA:         -13.627
REMARK INTER:                 -13.079
REMARK INTRA:                  -0.548
REMARK UNBOUND:                -0.551
REMARK  Name = 
REMARK  4 active torsions:
REMARK  status: ('A' for Active; 'I' for Inactive)
REMARK    1  A    between atoms: C_2  and  C_14
REMARK    2  A    between atoms: N_3  and  C_4
REMARK    3  A    between atoms: C_4  and  C_5
REMARK    4  A    between atoms: C_16  and  C_17
REMARK                            x       y       z     vdW  Elec       q    Type
REMARK                         _______ _______ _______ _____ _____    ______ ____
ROOT
ATOM      1  O   UNL     1      -7.438  -4.513  19.566  0.00  0.00    +0.000 OA
ATOM      2  C   UNL     1      -8.621  -4.668  19.281  0.00  0.00    +0.000 C 
ATOM      3  N   UNL     1      -9.567  -3.680  19.434  0.00  0.00    +0.000 N 
ATOM      4  H   UNL     1     -10.544  -3.925  19.380  0.00  0.00    +0.000 HD
ENDROOT
BRANCH   2   5
ATOM      5  C   UNL     1      -9.126  -5.914  18.770  0.00  0.00    +0.000 A 
ATOM      6  C   UNL     1      -8.502  -7.001  18.196  0.00  0.00    +0.000 A 
ATOM      7  C   UNL     1      -9.523  -7.942  17.909  0.00  0.00    +0.000 A 
ATOM      8  N   UNL     1     -10.719  -7.473  18.301  0.00  0.00    +0.000 NA
ATOM      9  N   UNL     1     -10.449  -6.256  18.811  0.00  0.00    +0.000 N 
ATOM     10  H   UNL     1      -7.443  -7.124  18.027  0.00  0.00    +0.000 HD
ATOM     11  H   UNL     1     -11.216  -5.698  19.183  0.00  0.00    +0.000 HD
BRANCH   7  12
ATOM     12  C   UNL     1      -9.343  -9.259  17.302  0.00  0.00    +0.000 A 
ATOM     13  C   UNL     1      -8.898 -10.346  18.066  0.00  0.00    +0.000 A 
ATOM     14  C   UNL     1      -8.670 -11.589  17.465  0.00  0.00    +0.000 A 
ATOM     15  C   UNL     1      -8.898 -11.751  16.100  0.00  0.00    +0.000 A 
ATOM     16 BR   UNL     1      -8.575 -13.424  15.283  0.00  0.00    +0.000 Br
ATOM     17  C   UNL     1      -9.357 -10.688  15.328  0.00  0.00    +0.000 A 
ATOM     18  C   UNL     1      -9.581  -9.446  15.929  0.00  0.00    +0.000 A 
ATOM     19  H   UNL     1      -8.708 -10.223  19.130  0.00  0.00    +0.000 HD
ATOM     20  H   UNL     1      -8.312 -12.417  18.071  0.00  0.00    +0.000 HD
ATOM     21  H   UNL     1      -9.543 -10.809  14.264  0.00  0.00    +0.000 HD
ATOM     22  H   UNL     1      -9.947  -8.633  15.310  0.00  0.00    +0.000 HD
ENDBRANCH   7  12
ENDBRANCH   2   5
BRANCH   3  23
ATOM     23  C   UNL     1      -9.227  -2.403  20.012  0.00  0.00    +0.000 C 
ATOM     24  H   UNL     1      -9.767  -1.602  19.496  0.00  0.00    +0.000 HD
ATOM     25  H   UNL     1      -8.160  -2.237  19.834  0.00  0.00    +0.000 HD
BRANCH  23  26
ATOM     26  C   UNL     1      -9.528  -2.359  21.489  0.00  0.00    +0.000 A 
ATOM     27  C   UNL     1     -10.769  -1.848  21.939  0.00  0.00    +0.000 A 
ATOM     28  C   UNL     1     -11.063  -1.759  23.304  0.00  0.00    +0.000 A 
ATOM     29  C   UNL     1     -10.108  -2.194  24.195  0.00  0.00    +0.000 A 
ATOM     30  C   UNL     1      -8.906  -2.706  23.771  0.00  0.00    +0.000 A 
ATOM     31  C   UNL     1      -8.586  -2.809  22.431  0.00  0.00    +0.000 A 
ATOM     32  O   UNL     1      -8.103  -3.068  24.808  0.00  0.00    +0.000 OA
ATOM     33  C   UNL     1      -8.927  -2.694  25.934  0.00  0.00    +0.000 C 
ATOM     34  O   UNL     1     -10.216  -2.173  25.550  0.00  0.00    +0.000 OA
ATOM     35  H   UNL     1     -11.506  -1.499  21.217  0.00  0.00    +0.000 HD
ATOM     36  H   UNL     1     -12.006  -1.351  23.652  0.00  0.00    +0.000 HD
ATOM     37  H   UNL     1      -7.623  -3.207  22.129  0.00  0.00    +0.000 HD
ATOM     38  H   UNL     1      -8.400  -1.930  26.517  0.00  0.00    +0.000 HD
ATOM     39  H   UNL     1      -9.078  -3.576  26.568  0.00  0.00    +0.000 HD
ENDBRANCH  23  26
ENDBRANCH   3  23
TORSDOF 4
ENDMDL
MODEL 4
REMARK VINA RESULT:   -10.562      3.969      5.993
REMARK INTER + INTRA:         -13.583
REMARK INTER:                 -13.010
REMARK INTRA:                  -0.573
REMARK UNBOUND:                -0.551
REMARK  Name = 
REMARK  4 active torsions:
REMARK  status: ('A' for Active; 'I' for Inactive)
REMARK    1  A    between atoms: C_2  and  C_14
REMARK    2  A    between atoms: N_3  and  C_4
REMARK    3  A    between atoms: C_4  and  C_5
REMARK    4  A    between atoms: C_16  and  C_17
REMARK                            x       y       z     vdW  Elec       q    Type
REMARK                         _______ _______ _______ _____ _____    ______ ____
ROOT
ATOM      1  O   UNL     1      -8.850  -4.928  19.061  0.00  0.00    +0.000 OA
ATOM      2  C   UNL     1      -9.703  -5.728  18.690  0.00  0.00    +0.000 C 
ATOM      3  N   UNL     1     -10.977  -5.354  18.328  0.00  0.00    +0.000 N 
ATOM      4  H   UNL     1     -11.687  -6.065  18.232  0.00  0.00    +0.000 HD
ENDROOT
BRANCH   2   5
ATOM      5  C   UNL     1      -9.443  -7.140  18.615  0.00  0.00    +0.000 A 
ATOM      6  C   UNL     1      -9.426  -8.025  17.558  0.00  0.00    +0.000 A 
ATOM      7  C   UNL     1      -9.086  -9.290  18.101  0.00  0.00    +0.000 A 
ATOM      8  N   UNL     1      -8.884  -9.194  19.425  0.00  0.00    +0.000 NA
ATOM      9  N   UNL     1      -9.107  -7.895  19.704  0.00  0.00    +0.000 N 
ATOM     10  H   UNL     1      -9.605  -7.794  16.519  0.00  0.00    +0.000 HD
ATOM     11  H   UNL     1      -9.008  -7.575  20.666  0.00  0.00    +0.000 HD
BRANCH   7  12
ATOM     12  C   UNL     1      -8.935 -10.540  17.360  0.00  0.00    +0.000 A 
ATOM     13  C   UNL     1      -9.096 -10.572  15.968  0.00  0.00    +0.000 A 
ATOM     14  C   UNL     1      -9.010 -11.783  15.273  0.00  0.00    +0.000 A 
ATOM     15  C   UNL     1      -8.752 -12.965  15.966  0.00  0.00    +0.000 A 
ATOM     16 BR   UNL     1      -8.653 -14.603  15.031  0.00  0.00    +0.000 Br
ATOM     17  C   UNL     1      -8.573 -12.950  17.346  0.00  0.00    +0.000 A 
ATOM     18  C   UNL     1      -8.662 -11.739  18.040  0.00  0.00    +0.000 A 
ATOM     19  H   UNL     1      -9.307  -9.656  15.422  0.00  0.00    +0.000 HD
ATOM     20  H   UNL     1      -9.150 -11.790  14.195  0.00  0.00    +0.000 HD
ATOM     21  H   UNL     1      -8.366 -13.866  17.893  0.00  0.00    +0.000 HD
ATOM     22  H   UNL     1      -8.510 -11.750  19.115  0.00  0.00    +0.000 HD
ENDBRANCH   7  12
ENDBRANCH   2   5
BRANCH   3  23
ATOM     23  C   UNL     1     -11.411  -3.983  18.430  0.00  0.00    +0.000 C 
ATOM     24  H   UNL     1     -10.675  -3.397  18.991  0.00  0.00    +0.000 HD
ATOM     25  H   UNL     1     -12.338  -3.975  19.014  0.00  0.00    +0.000 HD
BRANCH  23  26
ATOM     26  C   UNL     1     -11.638  -3.364  17.074  0.00  0.00    +0.000 A 
ATOM     27  C   UNL     1     -12.193  -2.065  16.977  0.00  0.00    +0.000 A 
ATOM     28  C   UNL     1     -12.449  -1.478  15.734  0.00  0.00    +0.000 A 
ATOM     29  C   UNL     1     -12.135  -2.202  14.606  0.00  0.00    +0.000 A 
ATOM     30  C   UNL     1     -11.581  -3.458  14.686  0.00  0.00    +0.000 A 
ATOM     31  C   UNL     1     -11.315  -4.064  15.899  0.00  0.00    +0.000 A 
ATOM     32  O   UNL     1     -11.356  -4.003  13.460  0.00  0.00    +0.000 OA
ATOM     33  C   UNL     1     -11.862  -2.958  12.600  0.00  0.00    +0.000 C 
ATOM     34  O   UNL     1     -12.324  -1.797  13.322  0.00  0.00    +0.000 OA
ATOM     35  H   UNL     1     -12.443  -1.514  17.882  0.00  0.00    +0.000 HD
ATOM     36  H   UNL     1     -12.891  -0.490  15.657  0.00  0.00    +0.000 HD
ATOM     37  H   UNL     1     -10.889  -5.061  15.927  0.00  0.00    +0.000 HD
ATOM     38  H   UNL     1     -12.697  -3.360  12.013  0.00  0.00    +0.000 HD
ATOM     39  H   UNL     1     -11.066  -2.651  11.912  0.00  0.00    +0.000 HD
ENDBRANCH  23  26
ENDBRANCH   3  23
TORSDOF 4
ENDMDL
MODEL 5
REMARK VINA RESULT:   -10.425      4.619      9.688
REMARK INTER + INTRA:         -13.415
REMARK INTER:                 -12.877
REMARK INTRA:                  -0.538
REMARK UNBOUND:                -0.551
REMARK  Name = 
REMARK  4 active torsions:
REMARK  status: ('A' for Active; 'I' for Inactive)
REMARK    1  A    between atoms: C_2  and  C_14
REMARK    2  A    between atoms: N_3  and  C_4
REMARK    3  A    between atoms: C_4  and  C_5
REMARK    4  A    between atoms: C_16  and  C_17
REMARK                            x       y       z     vdW  Elec       q    Type
REMARK                         _______ _______ _______ _____ _____    ______ ____
ROOT
ATOM      1  O   UNL     1     -10.644  -6.858  16.602  0.00  0.00    +0.000 OA
ATOM      2  C   UNL     1      -9.465  -7.023  16.900  0.00  0.00    +0.000 C 
ATOM      3  N   UNL     1      -8.685  -8.019  16.356  0.00  0.00    +0.000 N 
ATOM      4  H   UNL     1      -7.798  -8.233  16.785  0.00  0.00    +0.000 HD
ENDROOT
BRANCH   2   5
ATOM      5  C   UNL     1      -8.798  -6.190  17.863  0.00  0.00    +0.000 A 
ATOM      6  C   UNL     1      -9.253  -5.190  18.696  0.00  0.00    +0.000 A 
ATOM      7  C   UNL     1      -8.129  -4.743  19.435  0.00  0.00    +0.000 A 
ATOM      8  N   UNL     1      -7.034  -5.441  19.092  0.00  0.00    +0.000 NA
ATOM      9  N   UNL     1      -7.466  -6.298  18.147  0.00  0.00    +0.000 N 
ATOM     10  H   UNL     1     -10.270  -4.839  18.789  0.00  0.00    +0.000 HD
ATOM     11  H   UNL     1      -6.799  -6.947  17.731  0.00  0.00    +0.000 HD
BRANCH   7  12
ATOM     12  C   UNL     1      -8.121  -3.696  20.455  0.00  0.00    +0.000 A 
ATOM     13  C   UNL     1      -7.171  -3.706  21.485  0.00  0.00    +0.000 A 
ATOM     14  C   UNL     1      -7.207  -2.736  22.491  0.00  0.00    +0.000 A 
ATOM     15  C   UNL     1      -8.187  -1.745  22.465  0.00  0.00    +0.000 A 
ATOM     16 BR   UNL     1      -8.248  -0.443  23.833  0.00  0.00    +0.000 Br
ATOM     17  C   UNL     1      -9.128  -1.708  21.440  0.00  0.00    +0.000 A 
ATOM     18  C   UNL     1      -9.093  -2.681  20.436  0.00  0.00    +0.000 A 
ATOM     19  H   UNL     1      -6.410  -4.483  21.517  0.00  0.00    +0.000 HD
ATOM     20  H   UNL     1      -6.471  -2.767  23.289  0.00  0.00    +0.000 HD
ATOM     21  H   UNL     1      -9.892  -0.936  21.409  0.00  0.00    +0.000 HD
ATOM     22  H   UNL     1      -9.831  -2.629  19.642  0.00  0.00    +0.000 HD
ENDBRANCH   7  12
ENDBRANCH   2   5
BRANCH   3  23
ATOM     23  C   UNL     1      -9.237  -8.984  15.439  0.00  0.00    +0.000 C 
ATOM     24  H   UNL     1      -8.811  -8.839  14.440  0.00  0.00    +0.000 HD
ATOM     25  H   UNL     1     -10.311  -8.786  15.361  0.00  0.00    +0.000 HD
BRANCH  23  26
ATOM     26  C   UNL     1      -8.995 -10.399  15.901  0.00  0.00    +0.000 A 
ATOM     27  C   UNL     1      -8.749 -11.418  14.949  0.00  0.00    +0.000 A 
ATOM     28  C   UNL     1      -8.558 -12.747  15.343  0.00  0.00    +0.000 A 
ATOM     29  C   UNL     1      -8.607 -13.028  16.690  0.00  0.00    +0.000 A 
ATOM     30  C   UNL     1      -8.829 -12.046  17.625  0.00  0.00    +0.000 A 
ATOM     31  C   UNL     1      -9.019 -10.726  17.268  0.00  0.00    +0.000 A 
ATOM     32  O   UNL     1      -8.848 -12.536  18.894  0.00  0.00    +0.000 OA
ATOM     33  C   UNL     1      -8.645 -13.944  18.646  0.00  0.00    +0.000 C 
ATOM     34  O   UNL     1      -8.454 -14.258  17.251  0.00  0.00    +0.000 OA
ATOM     35  H   UNL     1      -8.725 -11.174  13.888  0.00  0.00    +0.000 HD
ATOM     36  H   UNL     1      -8.388 -13.532  14.615  0.00  0.00    +0.000 HD
ATOM     37  H   UNL     1      -9.205  -9.977  18.030  0.00  0.00    +0.000 HD
ATOM     38  H   UNL     1      -9.520 -14.496  19.012  0.00  0.00    +0.000 HD
ATOM     39  H   UNL     1      -7.763 -14.277  19.206  0.00  0.00    +0.000 HD
ENDBRANCH  23  26
ENDBRANCH   3  23
TORSDOF 4
ENDMDL
MODEL 6
REMARK VINA RESULT:   -10.385      1.525      2.220
REMARK INTER + INTRA:         -13.364
REMARK INTER:                 -12.922
REMARK INTRA:                  -0.442
REMARK UNBOUND:                -0.551
REMARK  Name = 
REMARK  4 active torsions:
REMARK  status: ('A' for Active; 'I' for Inactive)
REMARK    1  A    between atoms: C_2  and  C_14
REMARK    2  A    between atoms: N_3  and  C_4
REMARK    3  A    between atoms: C_4  and  C_5
REMARK    4  A    between atoms: C_16  and  C_17
REMARK                            x       y       z     vdW  Elec       q    Type
REMARK                         _______ _______ _______ _____ _____    ______ ____
ROOT
ATOM      1  O   UNL     1     -10.086  -3.544  17.762  0.00  0.00    +0.000 OA
ATOM      2  C   UNL     1      -9.688  -4.512  18.403  0.00  0.00    +0.000 C 
ATOM      3  N   UNL     1      -8.932  -4.395  19.547  0.00  0.00    +0.000 N 
ATOM      4  H   UNL     1      -8.466  -5.212  19.911  0.00  0.00    +0.000 HD
ENDROOT
BRANCH   2   5
ATOM      5  C   UNL     1      -9.970  -5.862  18.000  0.00  0.00    +0.000 A 
ATOM      6  C   UNL     1      -9.169  -6.865  17.497  0.00  0.00    +0.000 A 
ATOM      7  C   UNL     1     -10.011  -7.990  17.303  0.00  0.00    +0.000 A 
ATOM      8  N   UNL     1     -11.268  -7.707  17.683  0.00  0.00    +0.000 NA
ATOM      9  N   UNL     1     -11.212  -6.425  18.093  0.00  0.00    +0.000 N 
ATOM     10  H   UNL     1      -8.106  -6.815  17.316  0.00  0.00    +0.000 HD
ATOM     11  H   UNL     1     -12.063  -5.982  18.438  0.00  0.00    +0.000 HD
BRANCH   7  12
ATOM     12  C   UNL     1      -9.607  -9.299  16.794  0.00  0.00    +0.000 A 
ATOM     13  C   UNL     1      -9.640  -9.575  15.420  0.00  0.00    +0.000 A 
ATOM     14  C   UNL     1      -9.310 -10.849  14.946  0.00  0.00    +0.000 A 
ATOM     15  C   UNL     1      -8.935 -11.848  15.843  0.00  0.00    +0.000 A 
ATOM     16 BR   UNL     1      -8.505 -13.574  15.206  0.00  0.00    +0.000 Br
ATOM     17  C   UNL     1      -8.880 -11.587  17.209  0.00  0.00    +0.000 A 
ATOM     18  C   UNL     1      -9.213 -10.314  17.682  0.00  0.00    +0.000 A 
ATOM     19  H   UNL     1      -9.941  -8.803  14.716  0.00  0.00    +0.000 HD
ATOM     20  H   UNL     1      -9.353 -11.049  13.879  0.00  0.00    +0.000 HD
ATOM     21  H   UNL     1      -8.583 -12.359  17.914  0.00  0.00    +0.000 HD
ATOM     22  H   UNL     1      -9.155 -10.130  18.751  0.00  0.00    +0.000 HD
ENDBRANCH   7  12
ENDBRANCH   2   5
BRANCH   3  23
ATOM     23  C   UNL     1      -8.500  -3.106  20.029  0.00  0.00    +0.000 C 
ATOM     24  H   UNL     1      -9.160  -2.321  19.646  0.00  0.00    +0.000 HD
ATOM     25  H   UNL     1      -7.504  -2.918  19.614  0.00  0.00    +0.000 HD
BRANCH  23  26
ATOM     26  C   UNL     1      -8.460  -3.056  21.536  0.00  0.00    +0.000 A 
ATOM     27  C   UNL     1      -7.462  -3.775  22.238  0.00  0.00    +0.000 A 
ATOM     28  C   UNL     1      -7.421  -3.778  23.637  0.00  0.00    +0.000 A 
ATOM     29  C   UNL     1      -8.378  -3.049  24.307  0.00  0.00    +0.000 A 
ATOM     30  C   UNL     1      -9.342  -2.335  23.638  0.00  0.00    +0.000 A 
ATOM     31  C   UNL     1      -9.408  -2.311  22.258  0.00  0.00    +0.000 A 
ATOM     32  O   UNL     1     -10.193  -1.695  24.485  0.00  0.00    +0.000 OA
ATOM     33  C   UNL     1      -9.672  -2.117  25.764  0.00  0.00    +0.000 C 
ATOM     34  O   UNL     1      -8.498  -2.947  25.658  0.00  0.00    +0.000 OA
ATOM     35  H   UNL     1      -6.721  -4.352  21.688  0.00  0.00    +0.000 HD
ATOM     36  H   UNL     1      -6.669  -4.342  24.177  0.00  0.00    +0.000 HD
ATOM     37  H   UNL     1     -10.189  -1.746  21.760  0.00  0.00    +0.000 HD
ATOM     38  H   UNL     1     -10.452  -2.679  26.293  0.00  0.00    +0.000 HD
ATOM     39  H   UNL     1      -9.423  -1.227  26.353  0.00  0.00    +0.000 HD
ENDBRANCH  23  26
ENDBRANCH   3  23
TORSDOF 4
ENDMDL
MODEL 7
REMARK VINA RESULT:   -10.213      4.668      9.910
REMARK INTER + INTRA:         -13.153
REMARK INTER:                 -12.726
REMARK INTRA:                  -0.427
REMARK UNBOUND:                -0.551
REMARK  Name = 
REMARK  4 active torsions:
REMARK  status: ('A' for Active; 'I' for Inactive)
REMARK    1  A    between atoms: C_2  and  C_14
REMARK    2  A    between atoms: N_3  and  C_4
REMARK    3  A    between atoms: C_4  and  C_5
REMARK    4  A    between atoms: C_16  and  C_17
REMARK                            x       y       z     vdW  Elec       q    Type
REMARK                         _______ _______ _______ _____ _____    ______ ____
ROOT
ATOM      1  O   UNL     1      -7.642  -6.628  16.771  0.00  0.00    +0.000 OA
ATOM      2  C   UNL     1      -8.351  -6.479  17.761  0.00  0.00    +0.000 C 
ATOM      3  N   UNL     1      -9.569  -7.103  17.914  0.00  0.00    +0.000 N 
ATOM      4  H   UNL     1     -10.191  -6.787  18.642  0.00  0.00    +0.000 HD
ENDROOT
BRANCH   2   5
ATOM      5  C   UNL     1      -7.970  -5.621  18.850  0.00  0.00    +0.000 A 
ATOM      6  C   UNL     1      -8.610  -4.568  19.468  0.00  0.00    +0.000 A 
ATOM      7  C   UNL     1      -7.742  -4.120  20.496  0.00  0.00    +0.000 A 
ATOM      8  N   UNL     1      -6.627  -4.867  20.527  0.00  0.00    +0.000 NA
ATOM      9  N   UNL     1      -6.791  -5.755  19.529  0.00  0.00    +0.000 N 
ATOM     10  H   UNL     1      -9.592  -4.182  19.236  0.00  0.00    +0.000 HD
ATOM     11  H   UNL     1      -6.059  -6.444  19.358  0.00  0.00    +0.000 HD
BRANCH   7  12
ATOM     12  C   UNL     1      -7.997  -3.026  21.431  0.00  0.00    +0.000 A 
ATOM     13  C   UNL     1      -9.280  -2.479  21.562  0.00  0.00    +0.000 A 
ATOM     14  C   UNL     1      -9.503  -1.392  22.413  0.00  0.00    +0.000 A 
ATOM     15  C   UNL     1      -8.446  -0.856  23.146  0.00  0.00    +0.000 A 
ATOM     16 BR   UNL     1      -8.742   0.622  24.285  0.00  0.00    +0.000 Br
ATOM     17  C   UNL     1      -7.168  -1.398  23.043  0.00  0.00    +0.000 A 
ATOM     18  C   UNL     1      -6.945  -2.482  22.188  0.00  0.00    +0.000 A 
ATOM     19  H   UNL     1     -10.107  -2.885  20.984  0.00  0.00    +0.000 HD
ATOM     20  H   UNL     1     -10.502  -0.972  22.492  0.00  0.00    +0.000 HD
ATOM     21  H   UNL     1      -6.339  -0.990  23.615  0.00  0.00    +0.000 HD
ATOM     22  H   UNL     1      -5.943  -2.894  22.129  0.00  0.00    +0.000 HD
ENDBRANCH   7  12
ENDBRANCH   2   5
BRANCH   3  23
ATOM     23  C   UNL     1     -10.122  -7.929  16.871  0.00  0.00    +0.000 C 
ATOM     24  H   UNL     1      -9.879  -7.507  15.889  0.00  0.00    +0.000 HD
ATOM     25  H   UNL     1     -11.212  -7.898  16.971  0.00  0.00    +0.000 HD
BRANCH  23  26
ATOM     26  C   UNL     1      -9.625  -9.350  16.957  0.00  0.00    +0.000 A 
ATOM     27  C   UNL     1      -9.079  -9.832  18.171  0.00  0.00    +0.000 A 
ATOM     28  C   UNL     1      -8.576 -11.133  18.273  0.00  0.00    +0.000 A 
ATOM     29  C   UNL     1      -8.638 -11.933  17.154  0.00  0.00    +0.000 A 
ATOM     30  C   UNL     1      -9.180 -11.483  15.974  0.00  0.00    +0.000 A 
ATOM     31  C   UNL     1      -9.686 -10.204  15.843  0.00  0.00    +0.000 A 
ATOM     32  O   UNL     1      -9.136 -12.424  14.993  0.00  0.00    +0.000 OA
ATOM     33  C   UNL     1      -8.475 -13.507  15.683  0.00  0.00    +0.000 C 
ATOM     34  O   UNL     1      -8.190 -13.214  17.066  0.00  0.00    +0.000 OA
ATOM     35  H   UNL     1      -9.031  -9.178  19.041  0.00  0.00    +0.000 HD
ATOM     36  H   UNL     1      -8.141 -11.499  19.197  0.00  0.00    +0.000 HD
ATOM     37  H   UNL     1     -10.095  -9.876  14.893  0.00  0.00    +0.000 HD
ATOM     38  H   UNL     1      -7.531 -13.727  15.170  0.00  0.00    +0.000 HD
ATOM     39  H   UNL     1      -9.114 -14.397  15.636  0.00  0.00    +0.000 HD
ENDBRANCH  23  26
ENDBRANCH   3  23
TORSDOF 4
ENDMDL
MODEL 8
REMARK VINA RESULT:   -10.115      3.728      5.219
REMARK INTER + INTRA:         -13.031
REMARK INTER:                 -12.530
REMARK INTRA:                  -0.501
REMARK UNBOUND:                -0.551
REMARK  Name = 
REMARK  4 active torsions:
REMARK  status: ('A' for Active; 'I' for Inactive)
REMARK    1  A    between atoms: C_2  and  C_14
REMARK    2  A    between atoms: N_3  and  C_4
REMARK    3  A    between atoms: C_4  and  C_5
REMARK    4  A    between atoms: C_16  and  C_17
REMARK                            x       y       z     vdW  Elec       q    Type
REMARK                         _______ _______ _______ _____ _____    ______ ____
ROOT
ATOM      1  O   UNL     1      -7.864  -4.964  19.495  0.00  0.00    +0.000 OA
ATOM      2  C   UNL     1      -8.839  -5.573  19.065  0.00  0.00    +0.000 C 
ATOM      3  N   UNL     1      -9.997  -4.948  18.660  0.00  0.00    +0.000 N 
ATOM      4  H   UNL     1     -10.826  -5.503  18.514  0.00  0.00    +0.000 HD
ENDROOT
BRANCH   2   5
ATOM      5  C   UNL     1      -8.858  -7.007  18.962  0.00  0.00    +0.000 A 
ATOM      6  C   UNL     1      -8.862  -7.858  17.878  0.00  0.00    +0.000 A 
ATOM      7  C   UNL     1      -8.865  -9.175  18.404  0.00  0.00    +0.000 A 
ATOM      8  N   UNL     1      -8.846  -9.145  19.747  0.00  0.00    +0.000 NA
ATOM      9  N   UNL     1      -8.844  -7.833  20.051  0.00  0.00    +0.000 N 
ATOM     10  H   UNL     1      -8.836  -7.578  16.836  0.00  0.00    +0.000 HD
ATOM     11  H   UNL     1      -8.826  -7.557  21.032  0.00  0.00    +0.000 HD
BRANCH   7  12
ATOM     12  C   UNL     1      -8.860 -10.417  17.634  0.00  0.00    +0.000 A 
ATOM     13  C   UNL     1      -8.530 -11.636  18.242  0.00  0.00    +0.000 A 
ATOM     14  C   UNL     1      -8.468 -12.811  17.485  0.00  0.00    +0.000 A 
ATOM     15  C   UNL     1      -8.747 -12.772  16.120  0.00  0.00    +0.000 A 
ATOM     16 BR   UNL     1      -8.648 -14.355  15.093  0.00  0.00    +0.000 Br
ATOM     17  C   UNL     1      -9.094 -11.574  15.503  0.00  0.00    +0.000 A 
ATOM     18  C   UNL     1      -9.152 -10.400  16.259  0.00  0.00    +0.000 A 
ATOM     19  H   UNL     1      -8.300 -11.671  19.304  0.00  0.00    +0.000 HD
ATOM     20  H   UNL     1      -8.198 -13.744  17.970  0.00  0.00    +0.000 HD
ATOM     21  H   UNL     1      -9.319 -11.537  14.440  0.00  0.00    +0.000 HD
ATOM     22  H   UNL     1      -9.433  -9.478  15.759  0.00  0.00    +0.000 HD
ENDBRANCH   7  12
ENDBRANCH   2   5
BRANCH   3  23
ATOM     23  C   UNL     1     -10.158  -3.521  18.782  0.00  0.00    +0.000 C 
ATOM     24  H   UNL     1      -9.178  -3.039  18.883  0.00  0.00    +0.000 HD
ATOM     25  H   UNL     1     -10.704  -3.331  19.712  0.00  0.00    +0.000 HD
BRANCH  23  26
ATOM     26  C   UNL     1     -10.900  -2.937  17.606  0.00  0.00    +0.000 A 
ATOM     27  C   UNL     1     -10.932  -3.637  16.376  0.00  0.00    +0.000 A 
ATOM     28  C   UNL     1     -11.580  -3.105  15.257  0.00  0.00    +0.000 A 
ATOM     29  C   UNL     1     -12.195  -1.881  15.394  0.00  0.00    +0.000 A 
ATOM     30  C   UNL     1     -12.185  -1.198  16.587  0.00  0.00    +0.000 A 
ATOM     31  C   UNL     1     -11.555  -1.698  17.710  0.00  0.00    +0.000 A 
ATOM     32  O   UNL     1     -12.840  -0.009  16.507  0.00  0.00    +0.000 OA
ATOM     33  C   UNL     1     -13.235  -0.008  15.117  0.00  0.00    +0.000 C 
ATOM     34  O   UNL     1     -12.860  -1.211  14.416  0.00  0.00    +0.000 OA
ATOM     35  H   UNL     1     -10.429  -4.599  16.287  0.00  0.00    +0.000 HD
ATOM     36  H   UNL     1     -11.590  -3.631  14.309  0.00  0.00    +0.000 HD
ATOM     37  H   UNL     1     -11.555  -1.128  18.633  0.00  0.00    +0.000 HD
ATOM     38  H   UNL     1     -12.764   0.849  14.619  0.00  0.00    +0.000 HD
ATOM     39  H   UNL     1     -14.323   0.109  15.060  0.00  0.00    +0.000 HD
ENDBRANCH  23  26
ENDBRANCH   3  23
TORSDOF 4
ENDMDL
MODEL 9
REMARK VINA RESULT:   -10.099      5.425      9.680
REMARK INTER + INTRA:         -13.011
REMARK INTER:                 -12.510
REMARK INTRA:                  -0.502
REMARK UNBOUND:                -0.551
REMARK  Name = 
REMARK  4 active torsions:
REMARK  status: ('A' for Active; 'I' for Inactive)
REMARK    1  A    between atoms: C_2  and  C_14
REMARK    2  A    between atoms: N_3  and  C_4
REMARK    3  A    between atoms: C_4  and  C_5
REMARK    4  A    between atoms: C_16  and  C_17
REMARK                            x       y       z     vdW  Elec       q    Type
REMARK                         _______ _______ _______ _____ _____    ______ ____
ROOT
ATOM      1  O   UNL     1      -8.798  -7.121  19.753  0.00  0.00    +0.000 OA
ATOM      2  C   UNL     1      -9.451  -7.276  18.725  0.00  0.00    +0.000 C 
ATOM      3  N   UNL     1      -9.580  -8.493  18.094  0.00  0.00    +0.000 N 
ATOM      4  H   UNL     1      -9.951  -8.520  17.156  0.00  0.00    +0.000 HD
ENDROOT
BRANCH   2   5
ATOM      5  C   UNL     1     -10.131  -6.185  18.082  0.00  0.00    +0.000 A 
ATOM      6  C   UNL     1     -10.171  -5.763  16.770  0.00  0.00    +0.000 A 
ATOM      7  C   UNL     1     -11.030  -4.635  16.739  0.00  0.00    +0.000 A 
ATOM      8  N   UNL     1     -11.515  -4.380  17.965  0.00  0.00    +0.000 NA
ATOM      9  N   UNL     1     -10.956  -5.323  18.748  0.00  0.00    +0.000 N 
ATOM     10  H   UNL     1      -9.672  -6.219  15.928  0.00  0.00    +0.000 HD
ATOM     11  H   UNL     1     -11.183  -5.335  19.742  0.00  0.00    +0.000 HD
BRANCH   7  12
ATOM     12  C   UNL     1     -11.390  -3.850  15.560  0.00  0.00    +0.000 A 
ATOM     13  C   UNL     1     -11.778  -2.509  15.682  0.00  0.00    +0.000 A 
ATOM     14  C   UNL     1     -12.179  -1.783  14.557  0.00  0.00    +0.000 A 
ATOM     15  C   UNL     1     -12.182  -2.391  13.302  0.00  0.00    +0.000 A 
ATOM     16 BR   UNL     1     -12.739  -1.416  11.783  0.00  0.00    +0.000 Br
ATOM     17  C   UNL     1     -11.783  -3.717  13.159  0.00  0.00    +0.000 A 
ATOM     18  C   UNL     1     -11.386  -4.444  14.286  0.00  0.00    +0.000 A 
ATOM     19  H   UNL     1     -11.787  -2.032  16.659  0.00  0.00    +0.000 HD
ATOM     20  H   UNL     1     -12.488  -0.748  14.672  0.00  0.00    +0.000 HD
ATOM     21  H   UNL     1     -11.778  -4.197  12.184  0.00  0.00    +0.000 HD
ATOM     22  H   UNL     1     -11.071  -5.473  14.149  0.00  0.00    +0.000 HD
ENDBRANCH   7  12
ENDBRANCH   2   5
BRANCH   3  23
ATOM     23  C   UNL     1      -8.888  -9.662  18.575  0.00  0.00    +0.000 C 
ATOM     24  H   UNL     1      -9.371 -10.037  19.485  0.00  0.00    +0.000 HD
ATOM     25  H   UNL     1      -7.876  -9.352  18.855  0.00  0.00    +0.000 HD
BRANCH  23  26
ATOM     26  C   UNL     1      -8.836 -10.752  17.534  0.00  0.00    +0.000 A 
ATOM     27  C   UNL     1      -8.918 -10.417  16.161  0.00  0.00    +0.000 A 
ATOM     28  C   UNL     1      -8.910 -11.408  15.173  0.00  0.00    +0.000 A 
ATOM     29  C   UNL     1      -8.810 -12.719  15.581  0.00  0.00    +0.000 A 
ATOM     30  C   UNL     1      -8.714 -13.056  16.910  0.00  0.00    +0.000 A 
ATOM     31  C   UNL     1      -8.717 -12.101  17.908  0.00  0.00    +0.000 A 
ATOM     32  O   UNL     1      -8.633 -14.401  17.097  0.00  0.00    +0.000 OA
ATOM     33  C   UNL     1      -8.723 -14.872  15.735  0.00  0.00    +0.000 C 
ATOM     34  O   UNL     1      -8.797 -13.807  14.765  0.00  0.00    +0.000 OA
ATOM     35  H   UNL     1      -9.007  -9.374  15.861  0.00  0.00    +0.000 HD
ATOM     36  H   UNL     1      -8.991 -11.155  14.121  0.00  0.00    +0.000 HD
ATOM     37  H   UNL     1      -8.653 -12.402  18.948  0.00  0.00    +0.000 HD
ATOM     38  H   UNL     1      -9.618 -15.498  15.637  0.00  0.00    +0.000 HD
ATOM     39  H   UNL     1      -7.841 -15.486  15.516  0.00  0.00    +0.000 HD
ENDBRANCH  23  26
ENDBRANCH   3  23
TORSDOF 4
ENDMDL
