
 OpenBabel01112423053D

 47 50  0  0  0  0  0  0  0  0999 V2000
   -1.5802   -0.2649    2.6807 C   0  0  0  0  0  0  0  0  0  0  0  0
   -0.3190   -0.1509    1.8763 C   0  0  0  0  0  0  0  0  0  0  0  0
    0.1809   -1.2237    1.1342 C   0  0  0  0  0  0  0  0  0  0  0  0
    1.3586   -1.0799    0.3942 C   0  0  0  0  0  0  0  0  0  0  0  0
    2.0495    0.1315    0.4260 C   0  0  0  0  0  0  0  0  0  0  0  0
    3.1738    0.3875   -0.3692 N   0  0  0  0  0  0  0  0  0  0  0  0
    3.9277    1.5905   -0.3136 C   0  0  0  0  0  0  0  0  0  0  0  0
    3.6628    2.4388    0.7299 N   0  0  0  0  0  0  0  0  0  0  0  0
    4.4071    3.5595    0.7706 C   0  0  0  0  0  0  0  0  0  0  0  0
    5.2868    3.9399   -0.1547 N   0  0  0  0  0  0  0  0  0  0  0  0
    5.4993    3.1408   -1.2035 C   0  0  0  0  0  0  0  0  0  0  0  0
    6.3177    3.6028   -2.2497 N   0  0  0  0  0  0  0  0  0  0  0  0
    7.3035    4.6563   -2.3151 C   0  0  0  0  0  0  0  0  0  0  0  0
    7.7215    4.9037   -3.6546 C   0  0  0  0  0  0  0  0  0  0  0  0
    8.9105    5.5489   -3.9404 C   0  0  0  0  0  0  0  0  0  0  0  0
    9.7818    5.7534   -2.8940 C   0  0  0  0  0  0  0  0  0  0  0  0
    9.3647    5.5085   -1.5915 C   0  0  0  0  0  0  0  0  0  0  0  0
   10.3275    5.5924   -0.6095 C   0  0  0  0  0  0  0  0  0  0  0  0
   10.0016    6.4730    0.3767 C   0  0  0  0  0  0  0  0  0  0  0  0
    8.6772    6.4680    0.7568 C   0  0  0  0  0  0  0  0  0  0  0  0
    8.3449    7.4459    1.8586 C   0  0  0  0  0  0  0  0  0  0  0  0
    7.7255    5.7198    0.0733 N   0  0  0  0  0  0  0  0  0  0  0  0
    8.0473    5.2575   -1.2187 C   0  0  0  0  0  0  0  0  0  0  0  0
    4.8055    1.9147   -1.3576 C   0  0  0  0  0  0  0  0  0  0  0  0
    5.1270    0.9528   -2.3492 N   0  0  0  0  0  0  0  0  0  0  0  0
    1.5191    1.1348    1.1444 N   0  3  0  0  0  0  0  0  0  0  0  0
    0.3874    1.0461    1.8482 C   0  0  0  0  0  0  0  0  0  0  0  0
   -1.9867   -1.2810    2.6495 H   0  0  0  0  0  0  0  0  0  0  0  0
   -2.3432    0.4174    2.2921 H   0  0  0  0  0  0  0  0  0  0  0  0
   -1.3807   -0.0184    3.7291 H   0  0  0  0  0  0  0  0  0  0  0  0
   -0.3492   -2.1772    1.1188 H   0  0  0  0  0  0  0  0  0  0  0  0
    1.7194   -1.9126   -0.2035 H   0  0  0  0  0  0  0  0  0  0  0  0
    3.8051   -0.4085   -0.4756 H   0  0  0  0  0  0  0  0  0  0  0  0
    4.2993    4.2110    1.6152 H   0  0  0  0  0  0  0  0  0  0  0  0
    6.7731    2.7874   -2.6629 H   0  0  0  0  0  0  0  0  0  0  0  0
    7.1130    4.5604   -4.4886 H   0  0  0  0  0  0  0  0  0  0  0  0
    9.2056    5.7984   -4.9550 H   0  0  0  0  0  0  0  0  0  0  0  0
   10.7800    6.1478   -3.0771 H   0  0  0  0  0  0  0  0  0  0  0  0
   10.4317    4.5859   -0.1265 H   0  0  0  0  0  0  0  0  0  0  0  0
   10.7591    7.1068    0.8182 H   0  0  0  0  0  0  0  0  0  0  0  0
    7.4492    7.1787    2.4146 H   0  0  0  0  0  0  0  0  0  0  0  0
    8.2435    8.4567    1.4415 H   0  0  0  0  0  0  0  0  0  0  0  0
    9.1813    7.4919    2.5751 H   0  0  0  0  0  0  0  0  0  0  0  0
    5.4487    1.3537   -3.2252 H   0  0  0  0  0  0  0  0  0  0  0  0
    4.3820    0.2847   -2.5284 H   0  0  0  0  0  0  0  0  0  0  0  0
    2.0608    2.0082    1.1373 H   0  0  0  0  0  0  0  0  0  0  0  0
    0.0727    1.9437    2.3699 H   0  0  0  0  0  0  0  0  0  0  0  0
  1  2  1  0  0  0  0
  1 28  1  0  0  0  0
  1 29  1  0  0  0  0
  1 30  1  0  0  0  0
  2  3  1  0  0  0  0
  2 27  2  0  0  0  0
  3  4  2  0  0  0  0
  3 31  1  0  0  0  0
  4  5  1  0  0  0  0
  4 32  1  0  0  0  0
  5  6  1  0  0  0  0
  5 26  2  0  0  0  0
  6  7  1  0  0  0  0
  6 33  1  0  0  0  0
  7  8  1  0  0  0  0
  7 24  2  0  0  0  0
  8  9  2  0  0  0  0
  9 10  1  0  0  0  0
  9 34  1  0  0  0  0
 10 11  2  0  0  0  0
 11 12  1  0  0  0  0
 11 24  1  0  0  0  0
 12 13  1  0  0  0  0
 12 35  1  0  0  0  0
 13 14  1  0  0  0  0
 13 23  2  0  0  0  0
 14 15  2  0  0  0  0
 14 36  1  0  0  0  0
 15 16  1  0  0  0  0
 15 37  1  0  0  0  0
 16 17  2  0  0  0  0
 16 38  1  0  0  0  0
 17 18  1  0  0  0  0
 17 23  1  0  0  0  0
 18 19  2  0  0  0  0
 18 39  1  0  0  0  0
 19 20  1  0  0  0  0
 19 40  1  0  0  0  0
 20 21  1  0  0  0  0
 20 22  2  0  0  0  0
 21 41  1  0  0  0  0
 21 42  1  0  0  0  0
 21 43  1  0  0  0  0
 22 23  1  0  0  0  0
 24 25  1  0  0  0  0
 25 44  1  0  0  0  0
 25 45  1  0  0  0  0
 26 27  1  0  0  0  0
 26 46  1  0  0  0  0
 27 47  1  0  0  0  0
M  CHG  1  26   1
M  END
$$$$
