REMARK  Name = 
REMARK  3 active torsions:
REMARK  status: ('A' for Active; 'I' for Inactive)
REMARK    1  A    between atoms: C_1  and  C_2
REMARK    2  A    between atoms: N_9  and  C_10
REMARK    3  A    between atoms: C_22  and  N_23
REMARK                            x       y       z     vdW  Elec       q    Type
REMARK                         _______ _______ _______ _____ _____    ______ ____
ROOT
ATOM      1  C   UNL     1      -0.644   0.801   1.037  0.00  0.00    +0.000 A 
ATOM      2  N   UNL     1      -0.973  -0.033   0.035  0.00  0.00    +0.000 N 
ATOM      3  C   UNL     1      -0.767  -1.335   0.125  0.00  0.00    +0.000 A 
ATOM      4  N   UNL     1      -0.225  -1.927   1.192  0.00  0.00    +0.000 NA
ATOM      5  C   UNL     1       0.124  -1.130   2.226  0.00  0.00    +0.000 A 
ATOM      6  N   UNL     1       0.719  -1.718   3.367  0.00  0.00    +0.000 N 
ATOM      7  C   UNL     1       1.242  -3.025   3.359  0.00  0.00    +0.000 A 
ATOM      8  C   UNL     1       2.143  -3.416   2.364  0.00  0.00    +0.000 A 
ATOM      9  C   UNL     1       2.597  -4.728   2.328  0.00  0.00    +0.000 A 
ATOM     10  C   UNL     1       2.159  -5.613   3.300  0.00  0.00    +0.000 A 
ATOM     11  C   UNL     1       1.299  -5.135   4.277  0.00  0.00    +0.000 A 
ATOM     12  N   UNL     1       0.840  -3.861   4.331  0.00  0.00    +0.000 NA
ATOM     13  C   UNL     1      -0.026   0.271   2.185  0.00  0.00    +0.000 A 
ATOM     14  H   UNL     1      -1.340   0.384  -0.824  0.00  0.00    +0.000 HD
ATOM     15  H   UNL     1      -1.025  -1.952  -0.728  0.00  0.00    +0.000 HD
ATOM     16  H   UNL     1       0.095  -1.658   4.170  0.00  0.00    +0.000 HD
ATOM     17  H   UNL     1       2.477  -2.708   1.613  0.00  0.00    +0.000 HD
ATOM     18  H   UNL     1       3.278  -5.051   1.547  0.00  0.00    +0.000 HD
ATOM     19  H   UNL     1       2.483  -6.648   3.299  0.00  0.00    +0.000 HD
ATOM     20  H   UNL     1       0.941  -5.792   5.066  0.00  0.00    +0.000 HD
ENDROOT
BRANCH   1  28
ATOM     21  C   UNL     1      -1.112   2.155  -3.948  0.00  0.00    +0.000 A 
ATOM     22  C   UNL     1      -0.970   3.054  -5.019  0.00  0.00    +0.000 A 
ATOM     23  C   UNL     1      -0.773   4.415  -4.799  0.00  0.00    +0.000 A 
ATOM     24  C   UNL     1      -0.711   4.935  -3.504  0.00  0.00    +0.000 A 
ATOM     25  C   UNL     1      -0.849   4.044  -2.433  0.00  0.00    +0.000 A 
ATOM     26  S   UNL     1      -0.798   4.364  -0.738  0.00  0.00    +0.000 S 
ATOM     27  C   UNL     1      -0.933   2.693  -0.417  0.00  0.00    +0.000 A 
ATOM     28  N   UNL     1      -0.791   2.176   0.824  0.00  0.00    +0.000 N 
ATOM     29  N   UNL     1      -1.128   1.923  -1.469  0.00  0.00    +0.000 NA
ATOM     30  C   UNL     1      -1.045   2.677  -2.633  0.00  0.00    +0.000 A 
ATOM     31  H   UNL     1      -1.006   2.690  -6.046  0.00  0.00    +0.000 HD
ATOM     32  H   UNL     1      -0.658   5.086  -5.651  0.00  0.00    +0.000 HD
ATOM     33  H   UNL     1      -0.544   5.995  -3.339  0.00  0.00    +0.000 HD
ATOM     34  H   UNL     1      -0.700   2.778   1.634  0.00  0.00    +0.000 HD
BRANCH  21  35
ATOM     35  C   UNL     1      -1.286   0.687  -4.218  0.00  0.00    +0.000 C 
ATOM     36  H   UNL     1      -1.378   0.475  -5.288  0.00  0.00    +0.000 HD
ATOM     37  H   UNL     1      -2.189   0.316  -3.721  0.00  0.00    +0.000 HD
ATOM     38  H   UNL     1      -0.422   0.134  -3.834  0.00  0.00    +0.000 HD
ENDBRANCH  21  35
ENDBRANCH   1  28
BRANCH  13  39
ATOM     39  N   UNL     1       0.297   1.079   3.300  0.00  0.00    +0.000 N 
ATOM     40  H   UNL     1       0.936   0.596   3.941  0.00  0.00    +0.000 HD
ATOM     41  H   UNL     1       0.659   2.005   3.092  0.00  0.00    +0.000 HD
ENDBRANCH  13  39
TORSDOF 3
