MODEL 1
REMARK VINA RESULT:   -11.006      0.000      0.000
REMARK INTER + INTRA:         -14.776
REMARK INTER:                 -14.224
REMARK INTRA:                  -0.552
REMARK UNBOUND:                -0.552
REMARK  Name = 
REMARK  6 active torsions:
REMARK  status: ('A' for Active; 'I' for Inactive)
REMARK    1  A    between atoms: C_1  and  C_2
REMARK    2  A    between atoms: C_7  and  N_8
REMARK    3  A    between atoms: N_8  and  C_9
REMARK    4  A    between atoms: N_14  and  C_15
REMARK    5  A    between atoms: C_15  and  C_16
REMARK    6  A    between atoms: C_22  and  N_23
REMARK                            x       y       z     vdW  Elec       q    Type
REMARK                         _______ _______ _______ _____ _____    ______ ____
ROOT
ATOM      1  C   UNL     1      -8.098  -6.433  19.004  0.00  0.00    +0.000 A 
ATOM      2  N   UNL     1      -8.469  -7.080  20.138  0.00  0.00    +0.000 NA
ATOM      3  C   UNL     1      -9.130  -8.242  19.953  0.00  0.00    +0.000 A 
ATOM      4  N   UNL     1      -9.460  -8.794  18.782  0.00  0.00    +0.000 NA
ATOM      5  C   UNL     1      -9.098  -8.129  17.675  0.00  0.00    +0.000 A 
ATOM      6  N   UNL     1      -9.359  -8.670  16.403  0.00  0.00    +0.000 N 
ATOM      7  C   UNL     1      -8.351  -6.937  17.721  0.00  0.00    +0.000 A 
ATOM      8  H   UNL     1      -9.432  -8.788  20.842  0.00  0.00    +0.000 HD
ATOM      9  H   UNL     1      -9.674  -7.926  15.786  0.00  0.00    +0.000 HD
ENDROOT
BRANCH   6  10
ATOM     10  C   UNL     1     -10.300  -9.784  16.342  0.00  0.00    +0.000 C 
ATOM     11  H   UNL     1     -10.937  -9.700  15.453  0.00  0.00    +0.000 HD
ATOM     12  H   UNL     1     -10.956  -9.825  17.221  0.00  0.00    +0.000 HD
BRANCH  10  13
ATOM     13  C   UNL     1      -9.482 -11.054  16.257  0.00  0.00    +0.000 A 
ATOM     14  C   UNL     1      -9.109 -11.577  15.010  0.00  0.00    +0.000 A 
ATOM     15  C   UNL     1      -8.437 -12.797  14.926  0.00  0.00    +0.000 A 
ATOM     16  C   UNL     1      -8.140 -13.513  16.084  0.00  0.00    +0.000 A 
ATOM     17  C   UNL     1      -8.501 -13.002  17.330  0.00  0.00    +0.000 A 
ATOM     18  C   UNL     1      -9.165 -11.778  17.418  0.00  0.00    +0.000 A 
ATOM     19  H   UNL     1      -9.356 -11.042  14.095  0.00  0.00    +0.000 HD
ATOM     20  H   UNL     1      -8.155 -13.196  13.955  0.00  0.00    +0.000 HD
ATOM     21  H   UNL     1      -7.628 -14.469  16.015  0.00  0.00    +0.000 HD
ATOM     22  H   UNL     1      -8.270 -13.564  18.232  0.00  0.00    +0.000 HD
ATOM     23  H   UNL     1      -9.449 -11.400  18.398  0.00  0.00    +0.000 HD
ENDBRANCH  10  13
ENDBRANCH   6  10
BRANCH   7  24
ATOM     24  N   UNL     1      -8.093  -6.215  16.529  0.00  0.00    +0.000 N 
ATOM     25  H   UNL     1      -8.974  -5.884  16.123  0.00  0.00    +0.000 HD
ATOM     26  H   UNL     1      -7.534  -6.664  15.820  0.00  0.00    +0.000 HD
ENDBRANCH   7  24
BRANCH   1  27
ATOM     27  N   UNL     1      -7.453  -5.175  19.145  0.00  0.00    +0.000 N 
ATOM     28  H   UNL     1      -6.690  -5.091  18.486  0.00  0.00    +0.000 HD
BRANCH  27  34
ATOM     29  C   UNL     1      -5.912  -4.335  20.883  0.00  0.00    +0.000 A 
ATOM     30  C   UNL     1      -5.774  -3.629  22.085  0.00  0.00    +0.000 A 
ATOM     31  C   UNL     1      -6.891  -3.107  22.729  0.00  0.00    +0.000 A 
ATOM     32  C   UNL     1      -8.138  -3.306  22.164  0.00  0.00    +0.000 A 
ATOM     33  N   UNL     1      -8.241  -3.989  21.025  0.00  0.00    +0.000 N 
ATOM     34  C   UNL     1      -7.202  -4.523  20.360  0.00  0.00    +0.000 A 
ATOM     35  H   UNL     1      -4.788  -3.475  22.528  0.00  0.00    +0.000 HD
ATOM     36  H   UNL     1      -6.784  -2.552  23.657  0.00  0.00    +0.000 HD
ATOM     37  H   UNL     1      -9.060  -2.938  22.602  0.00  0.00    +0.000 HD
ATOM     38  H   UNL     1      -9.160  -4.147  20.586  0.00  0.00    +0.000 HD
BRANCH  29  39
ATOM     39  C   UNL     1      -4.688  -4.918  20.235  0.00  0.00    +0.000 C 
ATOM     40  H   UNL     1      -3.788  -4.707  20.823  0.00  0.00    +0.000 HD
ATOM     41  H   UNL     1      -4.531  -4.494  19.239  0.00  0.00    +0.000 HD
ATOM     42  H   UNL     1      -4.790  -6.006  20.157  0.00  0.00    +0.000 HD
ENDBRANCH  29  39
ENDBRANCH  27  34
ENDBRANCH   1  27
TORSDOF 6
ENDMDL
MODEL 2
REMARK VINA RESULT:   -10.712      1.119      2.501
REMARK INTER + INTRA:         -14.396
REMARK INTER:                 -13.751
REMARK INTRA:                  -0.645
REMARK UNBOUND:                -0.552
REMARK  Name = 
REMARK  6 active torsions:
REMARK  status: ('A' for Active; 'I' for Inactive)
REMARK    1  A    between atoms: C_1  and  C_2
REMARK    2  A    between atoms: C_7  and  N_8
REMARK    3  A    between atoms: N_8  and  C_9
REMARK    4  A    between atoms: N_14  and  C_15
REMARK    5  A    between atoms: C_15  and  C_16
REMARK    6  A    between atoms: C_22  and  N_23
REMARK                            x       y       z     vdW  Elec       q    Type
REMARK                         _______ _______ _______ _____ _____    ______ ____
ROOT
ATOM      1  C   UNL     1      -9.086  -5.617  19.165  0.00  0.00    +0.000 A 
ATOM      2  N   UNL     1      -9.399  -4.770  18.152  0.00  0.00    +0.000 NA
ATOM      3  C   UNL     1      -9.902  -5.352  17.044  0.00  0.00    +0.000 A 
ATOM      4  N   UNL     1     -10.103  -6.658  16.851  0.00  0.00    +0.000 NA
ATOM      5  C   UNL     1      -9.771  -7.478  17.858  0.00  0.00    +0.000 A 
ATOM      6  N   UNL     1     -10.002  -8.862  17.755  0.00  0.00    +0.000 N 
ATOM      7  C   UNL     1      -9.292  -7.002  19.093  0.00  0.00    +0.000 A 
ATOM      8  H   UNL     1     -10.171  -4.699  16.219  0.00  0.00    +0.000 HD
ATOM      9  H   UNL     1      -9.205  -9.360  18.143  0.00  0.00    +0.000 HD
ENDROOT
BRANCH   6  10
ATOM     10  C   UNL     1     -10.299  -9.382  16.425  0.00  0.00    +0.000 C 
ATOM     11  H   UNL     1      -9.924  -8.699  15.652  0.00  0.00    +0.000 HD
ATOM     12  H   UNL     1     -11.376  -9.515  16.258  0.00  0.00    +0.000 HD
BRANCH  10  13
ATOM     13  C   UNL     1      -9.597 -10.717  16.300  0.00  0.00    +0.000 A 
ATOM     14  C   UNL     1      -9.254 -11.448  17.447  0.00  0.00    +0.000 A 
ATOM     15  C   UNL     1      -8.523 -12.633  17.340  0.00  0.00    +0.000 A 
ATOM     16  C   UNL     1      -8.118 -13.093  16.088  0.00  0.00    +0.000 A 
ATOM     17  C   UNL     1      -8.456 -12.378  14.941  0.00  0.00    +0.000 A 
ATOM     18  C   UNL     1      -9.195 -11.198  15.044  0.00  0.00    +0.000 A 
ATOM     19  H   UNL     1      -9.541 -11.089  18.433  0.00  0.00    +0.000 HD
ATOM     20  H   UNL     1      -8.259 -13.191  18.234  0.00  0.00    +0.000 HD
ATOM     21  H   UNL     1      -7.538 -14.008  16.008  0.00  0.00    +0.000 HD
ATOM     22  H   UNL     1      -8.136 -12.737  13.965  0.00  0.00    +0.000 HD
ATOM     23  H   UNL     1      -9.440 -10.647  14.138  0.00  0.00    +0.000 HD
ENDBRANCH  10  13
ENDBRANCH   6  10
BRANCH   7  24
ATOM     24  N   UNL     1      -8.849  -7.914  20.082  0.00  0.00    +0.000 N 
ATOM     25  H   UNL     1      -7.865  -8.151  19.925  0.00  0.00    +0.000 HD
ATOM     26  H   UNL     1      -9.388  -8.755  20.220  0.00  0.00    +0.000 HD
ENDBRANCH   7  24
BRANCH   1  27
ATOM     27  N   UNL     1      -8.494  -5.060  20.331  0.00  0.00    +0.000 N 
ATOM     28  H   UNL     1      -9.109  -4.371  20.746  0.00  0.00    +0.000 HD
BRANCH  27  34
ATOM     29  C   UNL     1      -6.647  -3.910  21.499  0.00  0.00    +0.000 A 
ATOM     30  C   UNL     1      -5.264  -3.698  21.583  0.00  0.00    +0.000 A 
ATOM     31  C   UNL     1      -4.400  -4.322  20.690  0.00  0.00    +0.000 A 
ATOM     32  C   UNL     1      -4.933  -5.147  19.715  0.00  0.00    +0.000 A 
ATOM     33  N   UNL     1      -6.251  -5.323  19.652  0.00  0.00    +0.000 N 
ATOM     34  C   UNL     1      -7.138  -4.744  20.481  0.00  0.00    +0.000 A 
ATOM     35  H   UNL     1      -4.848  -3.046  22.353  0.00  0.00    +0.000 HD
ATOM     36  H   UNL     1      -3.327  -4.165  20.759  0.00  0.00    +0.000 HD
ATOM     37  H   UNL     1      -4.332  -5.667  18.977  0.00  0.00    +0.000 HD
ATOM     38  H   UNL     1      -6.669  -5.935  18.937  0.00  0.00    +0.000 HD
BRANCH  29  39
ATOM     39  C   UNL     1      -7.555  -3.189  22.457  0.00  0.00    +0.000 C 
ATOM     40  H   UNL     1      -8.547  -3.653  22.490  0.00  0.00    +0.000 HD
ATOM     41  H   UNL     1      -7.694  -2.147  22.157  0.00  0.00    +0.000 HD
ATOM     42  H   UNL     1      -7.134  -3.225  23.467  0.00  0.00    +0.000 HD
ENDBRANCH  29  39
ENDBRANCH  27  34
ENDBRANCH   1  27
TORSDOF 6
ENDMDL
MODEL 3
REMARK VINA RESULT:   -10.381      3.123      4.760
REMARK INTER + INTRA:         -13.968
REMARK INTER:                 -13.351
REMARK INTRA:                  -0.617
REMARK UNBOUND:                -0.552
REMARK  Name = 
REMARK  6 active torsions:
REMARK  status: ('A' for Active; 'I' for Inactive)
REMARK    1  A    between atoms: C_1  and  C_2
REMARK    2  A    between atoms: C_7  and  N_8
REMARK    3  A    between atoms: N_8  and  C_9
REMARK    4  A    between atoms: N_14  and  C_15
REMARK    5  A    between atoms: C_15  and  C_16
REMARK    6  A    between atoms: C_22  and  N_23
REMARK                            x       y       z     vdW  Elec       q    Type
REMARK                         _______ _______ _______ _____ _____    ______ ____
ROOT
ATOM      1  C   UNL     1     -10.844  -6.886  17.648  0.00  0.00    +0.000 A 
ATOM      2  N   UNL     1     -10.101  -6.448  18.697  0.00  0.00    +0.000 NA
ATOM      3  C   UNL     1      -9.151  -7.301  19.131  0.00  0.00    +0.000 A 
ATOM      4  N   UNL     1      -8.888  -8.517  18.644  0.00  0.00    +0.000 NA
ATOM      5  C   UNL     1      -9.645  -8.936  17.619  0.00  0.00    +0.000 A 
ATOM      6  N   UNL     1      -9.397 -10.182  17.014  0.00  0.00    +0.000 N 
ATOM      7  C   UNL     1     -10.632  -8.125  17.028  0.00  0.00    +0.000 A 
ATOM      8  H   UNL     1      -8.533  -6.974  19.963  0.00  0.00    +0.000 HD
ATOM      9  H   UNL     1     -10.284 -10.636  16.818  0.00  0.00    +0.000 HD
ENDROOT
BRANCH   6  10
ATOM     10  C   UNL     1      -8.528 -11.103  17.739  0.00  0.00    +0.000 C 
ATOM     11  H   UNL     1      -8.881 -11.235  18.769  0.00  0.00    +0.000 HD
ATOM     12  H   UNL     1      -7.489 -10.751  17.784  0.00  0.00    +0.000 HD
BRANCH  10  13
ATOM     13  C   UNL     1      -8.584 -12.431  17.014  0.00  0.00    +0.000 A 
ATOM     14  C   UNL     1      -8.494 -12.481  15.616  0.00  0.00    +0.000 A 
ATOM     15  C   UNL     1      -8.640 -13.693  14.938  0.00  0.00    +0.000 A 
ATOM     16  C   UNL     1      -8.888 -14.865  15.651  0.00  0.00    +0.000 A 
ATOM     17  C   UNL     1      -8.975 -14.830  17.041  0.00  0.00    +0.000 A 
ATOM     18  C   UNL     1      -8.821 -13.621  17.721  0.00  0.00    +0.000 A 
ATOM     19  H   UNL     1      -8.325 -11.570  15.043  0.00  0.00    +0.000 HD
ATOM     20  H   UNL     1      -8.572 -13.721  13.854  0.00  0.00    +0.000 HD
ATOM     21  H   UNL     1      -9.014 -15.805  15.120  0.00  0.00    +0.000 HD
ATOM     22  H   UNL     1      -9.172 -15.745  17.594  0.00  0.00    +0.000 HD
ATOM     23  H   UNL     1      -8.903 -13.610  18.806  0.00  0.00    +0.000 HD
ENDBRANCH  10  13
ENDBRANCH   6  10
BRANCH   7  24
ATOM     24  N   UNL     1     -11.480  -8.656  16.025  0.00  0.00    +0.000 N 
ATOM     25  H   UNL     1     -12.454  -8.635  16.342  0.00  0.00    +0.000 HD
ATOM     26  H   UNL     1     -11.256  -9.568  15.656  0.00  0.00    +0.000 HD
ENDBRANCH   7  24
BRANCH   1  27
ATOM     27  N   UNL     1     -11.899  -6.050  17.194  0.00  0.00    +0.000 N 
ATOM     28  H   UNL     1     -12.723  -6.599  16.985  0.00  0.00    +0.000 HD
BRANCH  27  34
ATOM     29  C   UNL     1     -11.682  -3.619  16.816  0.00  0.00    +0.000 A 
ATOM     30  C   UNL     1     -11.487  -2.591  15.884  0.00  0.00    +0.000 A 
ATOM     31  C   UNL     1     -11.343  -2.882  14.532  0.00  0.00    +0.000 A 
ATOM     32  C   UNL     1     -11.404  -4.203  14.125  0.00  0.00    +0.000 A 
ATOM     33  N   UNL     1     -11.599  -5.160  15.031  0.00  0.00    +0.000 N 
ATOM     34  C   UNL     1     -11.751  -4.942  16.349  0.00  0.00    +0.000 A 
ATOM     35  H   UNL     1     -11.440  -1.549  16.208  0.00  0.00    +0.000 HD
ATOM     36  H   UNL     1     -11.183  -2.086  13.809  0.00  0.00    +0.000 HD
ATOM     37  H   UNL     1     -11.306  -4.517  13.092  0.00  0.00    +0.000 HD
ATOM     38  H   UNL     1     -11.644  -6.150  14.751  0.00  0.00    +0.000 HD
BRANCH  29  39
ATOM     39  C   UNL     1     -11.872  -3.265  18.264  0.00  0.00    +0.000 C 
ATOM     40  H   UNL     1     -12.514  -2.384  18.377  0.00  0.00    +0.000 HD
ATOM     41  H   UNL     1     -10.915  -3.030  18.739  0.00  0.00    +0.000 HD
ATOM     42  H   UNL     1     -12.348  -4.098  18.792  0.00  0.00    +0.000 HD
ENDBRANCH  29  39
ENDBRANCH  27  34
ENDBRANCH   1  27
TORSDOF 6
ENDMDL
MODEL 4
REMARK VINA RESULT:   -10.334      1.432      8.319
REMARK INTER + INTRA:         -13.907
REMARK INTER:                 -13.444
REMARK INTRA:                  -0.463
REMARK UNBOUND:                -0.552
REMARK  Name = 
REMARK  6 active torsions:
REMARK  status: ('A' for Active; 'I' for Inactive)
REMARK    1  A    between atoms: C_1  and  C_2
REMARK    2  A    between atoms: C_7  and  N_8
REMARK    3  A    between atoms: N_8  and  C_9
REMARK    4  A    between atoms: N_14  and  C_15
REMARK    5  A    between atoms: C_15  and  C_16
REMARK    6  A    between atoms: C_22  and  N_23
REMARK                            x       y       z     vdW  Elec       q    Type
REMARK                         _______ _______ _______ _____ _____    ______ ____
ROOT
ATOM      1  C   UNL     1      -9.078  -9.913  17.981  0.00  0.00    +0.000 A 
ATOM      2  N   UNL     1      -9.216  -9.368  16.745  0.00  0.00    +0.000 NA
ATOM      3  C   UNL     1      -9.051  -8.030  16.679  0.00  0.00    +0.000 A 
ATOM      4  N   UNL     1      -8.783  -7.209  17.698  0.00  0.00    +0.000 NA
ATOM      5  C   UNL     1      -8.667  -7.766  18.911  0.00  0.00    +0.000 A 
ATOM      6  N   UNL     1      -8.333  -6.978  20.028  0.00  0.00    +0.000 N 
ATOM      7  C   UNL     1      -8.756  -9.156  19.116  0.00  0.00    +0.000 A 
ATOM      8  H   UNL     1      -9.146  -7.566  15.701  0.00  0.00    +0.000 HD
ATOM      9  H   UNL     1      -8.895  -7.273  20.821  0.00  0.00    +0.000 HD
ENDROOT
BRANCH   6  10
ATOM     10  C   UNL     1      -8.441  -5.531  19.867  0.00  0.00    +0.000 C 
ATOM     11  H   UNL     1      -9.221  -5.129  20.526  0.00  0.00    +0.000 HD
ATOM     12  H   UNL     1      -8.690  -5.242  18.838  0.00  0.00    +0.000 HD
BRANCH  10  13
ATOM     13  C   UNL     1      -7.103  -4.939  20.253  0.00  0.00    +0.000 A 
ATOM     14  C   UNL     1      -5.919  -5.426  19.679  0.00  0.00    +0.000 A 
ATOM     15  C   UNL     1      -4.678  -4.948  20.101  0.00  0.00    +0.000 A 
ATOM     16  C   UNL     1      -4.605  -3.987  21.108  0.00  0.00    +0.000 A 
ATOM     17  C   UNL     1      -5.774  -3.492  21.684  0.00  0.00    +0.000 A 
ATOM     18  C   UNL     1      -7.017  -3.961  21.257  0.00  0.00    +0.000 A 
ATOM     19  H   UNL     1      -5.958  -6.195  18.909  0.00  0.00    +0.000 HD
ATOM     20  H   UNL     1      -3.766  -5.333  19.653  0.00  0.00    +0.000 HD
ATOM     21  H   UNL     1      -3.637  -3.625  21.445  0.00  0.00    +0.000 HD
ATOM     22  H   UNL     1      -5.714  -2.744  22.471  0.00  0.00    +0.000 HD
ATOM     23  H   UNL     1      -7.918  -3.572  21.725  0.00  0.00    +0.000 HD
ENDBRANCH  10  13
ENDBRANCH   6  10
BRANCH   7  24
ATOM     24  N   UNL     1      -8.741  -9.682  20.431  0.00  0.00    +0.000 N 
ATOM     25  H   UNL     1      -7.775  -9.772  20.761  0.00  0.00    +0.000 HD
ATOM     26  H   UNL     1      -9.243 -10.540  20.600  0.00  0.00    +0.000 HD
ENDBRANCH   7  24
BRANCH   1  27
ATOM     27  N   UNL     1      -9.305 -11.309  18.113  0.00  0.00    +0.000 N 
ATOM     28  H   UNL     1      -9.093 -11.615  19.054  0.00  0.00    +0.000 HD
BRANCH  27  34
ATOM     29  C   UNL     1      -8.848 -13.640  17.437  0.00  0.00    +0.000 A 
ATOM     30  C   UNL     1      -8.596 -14.526  16.380  0.00  0.00    +0.000 A 
ATOM     31  C   UNL     1      -8.530 -14.062  15.071  0.00  0.00    +0.000 A 
ATOM     32  C   UNL     1      -8.710 -12.711  14.834  0.00  0.00    +0.000 A 
ATOM     33  N   UNL     1      -8.938 -11.889  15.857  0.00  0.00    +0.000 N 
ATOM     34  C   UNL     1      -9.007 -12.275  17.144  0.00  0.00    +0.000 A 
ATOM     35  H   UNL     1      -8.454 -15.591  16.572  0.00  0.00    +0.000 HD
ATOM     36  H   UNL     1      -8.344 -14.749  14.251  0.00  0.00    +0.000 HD
ATOM     37  H   UNL     1      -8.670 -12.266  13.846  0.00  0.00    +0.000 HD
ATOM     38  H   UNL     1      -9.078 -10.881  15.703  0.00  0.00    +0.000 HD
BRANCH  29  39
ATOM     39  C   UNL     1      -8.874 -14.170  18.843  0.00  0.00    +0.000 C 
ATOM     40  H   UNL     1      -8.653 -15.243  18.868  0.00  0.00    +0.000 HD
ATOM     41  H   UNL     1      -9.860 -14.032  19.296  0.00  0.00    +0.000 HD
ATOM     42  H   UNL     1      -8.119 -13.657  19.448  0.00  0.00    +0.000 HD
ENDBRANCH  29  39
ENDBRANCH  27  34
ENDBRANCH   1  27
TORSDOF 6
ENDMDL
MODEL 5
REMARK VINA RESULT:   -10.142      1.402      2.302
REMARK INTER + INTRA:         -13.658
REMARK INTER:                 -12.966
REMARK INTRA:                  -0.693
REMARK UNBOUND:                -0.552
REMARK  Name = 
REMARK  6 active torsions:
REMARK  status: ('A' for Active; 'I' for Inactive)
REMARK    1  A    between atoms: C_1  and  C_2
REMARK    2  A    between atoms: C_7  and  N_8
REMARK    3  A    between atoms: N_8  and  C_9
REMARK    4  A    between atoms: N_14  and  C_15
REMARK    5  A    between atoms: C_15  and  C_16
REMARK    6  A    between atoms: C_22  and  N_23
REMARK                            x       y       z     vdW  Elec       q    Type
REMARK                         _______ _______ _______ _____ _____    ______ ____
ROOT
ATOM      1  C   UNL     1      -8.623  -5.026  19.192  0.00  0.00    +0.000 A 
ATOM      2  N   UNL     1      -9.457  -4.235  18.468  0.00  0.00    +0.000 NA
ATOM      3  C   UNL     1     -10.289  -4.886  17.629  0.00  0.00    +0.000 A 
ATOM      4  N   UNL     1     -10.357  -6.206  17.438  0.00  0.00    +0.000 NA
ATOM      5  C   UNL     1      -9.514  -6.966  18.151  0.00  0.00    +0.000 A 
ATOM      6  N   UNL     1      -9.560  -8.369  18.049  0.00  0.00    +0.000 N 
ATOM      7  C   UNL     1      -8.635  -6.425  19.108  0.00  0.00    +0.000 A 
ATOM      8  H   UNL     1     -10.975  -4.281  17.043  0.00  0.00    +0.000 HD
ATOM      9  H   UNL     1      -8.610  -8.730  18.031  0.00  0.00    +0.000 HD
ENDROOT
BRANCH   6  10
ATOM     10  C   UNL     1     -10.311  -8.922  16.927  0.00  0.00    +0.000 C 
ATOM     11  H   UNL     1     -10.246  -8.258  16.056  0.00  0.00    +0.000 HD
ATOM     12  H   UNL     1     -11.375  -9.061  17.164  0.00  0.00    +0.000 HD
BRANCH  10  13
ATOM     13  C   UNL     1      -9.687 -10.258  16.589  0.00  0.00    +0.000 A 
ATOM     14  C   UNL     1      -9.292 -11.136  17.609  0.00  0.00    +0.000 A 
ATOM     15  C   UNL     1      -8.630 -12.327  17.302  0.00  0.00    +0.000 A 
ATOM     16  C   UNL     1      -8.348 -12.647  15.976  0.00  0.00    +0.000 A 
ATOM     17  C   UNL     1      -8.739 -11.786  14.953  0.00  0.00    +0.000 A 
ATOM     18  C   UNL     1      -9.409 -10.599  15.255  0.00  0.00    +0.000 A 
ATOM     19  H   UNL     1      -9.482 -10.888  18.651  0.00  0.00    +0.000 HD
ATOM     20  H   UNL     1      -8.324 -12.998  18.100  0.00  0.00    +0.000 HD
ATOM     21  H   UNL     1      -7.821 -13.568  15.741  0.00  0.00    +0.000 HD
ATOM     22  H   UNL     1      -8.515 -12.037  13.919  0.00  0.00    +0.000 HD
ATOM     23  H   UNL     1      -9.697  -9.934  14.445  0.00  0.00    +0.000 HD
ENDBRANCH  10  13
ENDBRANCH   6  10
BRANCH   7  24
ATOM     24  N   UNL     1      -7.686  -7.258  19.751  0.00  0.00    +0.000 N 
ATOM     25  H   UNL     1      -6.910  -6.693  20.110  0.00  0.00    +0.000 HD
ATOM     26  H   UNL     1      -7.328  -8.047  19.235  0.00  0.00    +0.000 HD
ENDBRANCH   7  24
BRANCH   1  27
ATOM     27  N   UNL     1      -7.685  -4.385  20.045  0.00  0.00    +0.000 N 
ATOM     28  H   UNL     1      -6.967  -5.037  20.336  0.00  0.00    +0.000 HD
BRANCH  27  34
ATOM     29  C   UNL     1      -7.056  -2.940  21.946  0.00  0.00    +0.000 A 
ATOM     30  C   UNL     1      -7.467  -1.961  22.861  0.00  0.00    +0.000 A 
ATOM     31  C   UNL     1      -8.772  -1.482  22.841  0.00  0.00    +0.000 A 
ATOM     32  C   UNL     1      -9.656  -1.995  21.909  0.00  0.00    +0.000 A 
ATOM     33  N   UNL     1      -9.241  -2.931  21.057  0.00  0.00    +0.000 N 
ATOM     34  C   UNL     1      -7.996  -3.439  21.030  0.00  0.00    +0.000 A 
ATOM     35  H   UNL     1      -6.767  -1.559  23.595  0.00  0.00    +0.000 HD
ATOM     36  H   UNL     1      -9.090  -0.717  23.544  0.00  0.00    +0.000 HD
ATOM     37  H   UNL     1     -10.691  -1.681  21.828  0.00  0.00    +0.000 HD
ATOM     38  H   UNL     1      -9.881  -3.325  20.353  0.00  0.00    +0.000 HD
BRANCH  29  39
ATOM     39  C   UNL     1      -5.649  -3.462  22.021  0.00  0.00    +0.000 C 
ATOM     40  H   UNL     1      -5.497  -4.070  22.920  0.00  0.00    +0.000 HD
ATOM     41  H   UNL     1      -4.927  -2.642  22.059  0.00  0.00    +0.000 HD
ATOM     42  H   UNL     1      -5.439  -4.093  21.150  0.00  0.00    +0.000 HD
ENDBRANCH  29  39
ENDBRANCH  27  34
ENDBRANCH   1  27
TORSDOF 6
ENDMDL
MODEL 6
REMARK VINA RESULT:   -10.024      3.023      4.098
REMARK INTER + INTRA:         -13.506
REMARK INTER:                 -12.813
REMARK INTRA:                  -0.694
REMARK UNBOUND:                -0.552
REMARK  Name = 
REMARK  6 active torsions:
REMARK  status: ('A' for Active; 'I' for Inactive)
REMARK    1  A    between atoms: C_1  and  C_2
REMARK    2  A    between atoms: C_7  and  N_8
REMARK    3  A    between atoms: N_8  and  C_9
REMARK    4  A    between atoms: N_14  and  C_15
REMARK    5  A    between atoms: C_15  and  C_16
REMARK    6  A    between atoms: C_22  and  N_23
REMARK                            x       y       z     vdW  Elec       q    Type
REMARK                         _______ _______ _______ _____ _____    ______ ____
ROOT
ATOM      1  C   UNL     1     -10.604  -6.807  17.699  0.00  0.00    +0.000 A 
ATOM      2  N   UNL     1      -9.806  -6.428  18.729  0.00  0.00    +0.000 NA
ATOM      3  C   UNL     1      -8.957  -7.373  19.184  0.00  0.00    +0.000 A 
ATOM      4  N   UNL     1      -8.842  -8.625  18.733  0.00  0.00    +0.000 NA
ATOM      5  C   UNL     1      -9.651  -8.983  17.725  0.00  0.00    +0.000 A 
ATOM      6  N   UNL     1      -9.555 -10.266  17.156  0.00  0.00    +0.000 N 
ATOM      7  C   UNL     1     -10.542  -8.080  17.115  0.00  0.00    +0.000 A 
ATOM      8  H   UNL     1      -8.299  -7.096  20.003  0.00  0.00    +0.000 HD
ATOM      9  H   UNL     1     -10.491 -10.620  16.979  0.00  0.00    +0.000 HD
ENDROOT
BRANCH   6  10
ATOM     10  C   UNL     1      -8.793 -11.261  17.904  0.00  0.00    +0.000 C 
ATOM     11  H   UNL     1      -9.302 -11.509  18.843  0.00  0.00    +0.000 HD
ATOM     12  H   UNL     1      -7.782 -10.913  18.153  0.00  0.00    +0.000 HD
BRANCH  10  13
ATOM     13  C   UNL     1      -8.705 -12.498  17.037  0.00  0.00    +0.000 A 
ATOM     14  C   UNL     1      -8.551 -12.383  15.648  0.00  0.00    +0.000 A 
ATOM     15  C   UNL     1      -8.565 -13.519  14.836  0.00  0.00    +0.000 A 
ATOM     16  C   UNL     1      -8.743 -14.779  15.402  0.00  0.00    +0.000 A 
ATOM     17  C   UNL     1      -8.893 -14.909  16.781  0.00  0.00    +0.000 A 
ATOM     18  C   UNL     1      -8.870 -13.776  17.596  0.00  0.00    +0.000 A 
ATOM     19  H   UNL     1      -8.436 -11.403  15.188  0.00  0.00    +0.000 HD
ATOM     20  H   UNL     1      -8.449 -13.418  13.760  0.00  0.00    +0.000 HD
ATOM     21  H   UNL     1      -8.767 -15.661  14.767  0.00  0.00    +0.000 HD
ATOM     22  H   UNL     1      -9.035 -15.893  17.220  0.00  0.00    +0.000 HD
ATOM     23  H   UNL     1      -8.999 -13.895  18.670  0.00  0.00    +0.000 HD
ENDBRANCH  10  13
ENDBRANCH   6  10
BRANCH   7  24
ATOM     24  N   UNL     1     -11.455  -8.538  16.133  0.00  0.00    +0.000 N 
ATOM     25  H   UNL     1     -12.241  -9.018  16.582  0.00  0.00    +0.000 HD
ATOM     26  H   UNL     1     -11.090  -9.103  15.381  0.00  0.00    +0.000 HD
ENDBRANCH   7  24
BRANCH   1  27
ATOM     27  N   UNL     1     -11.559  -5.868  17.225  0.00  0.00    +0.000 N 
ATOM     28  H   UNL     1     -11.864  -6.111  16.292  0.00  0.00    +0.000 HD
BRANCH  27  34
ATOM     29  C   UNL     1     -11.534  -3.539  16.403  0.00  0.00    +0.000 A 
ATOM     30  C   UNL     1     -11.529  -2.178  16.738  0.00  0.00    +0.000 A 
ATOM     31  C   UNL     1     -11.529  -1.779  18.070  0.00  0.00    +0.000 A 
ATOM     32  C   UNL     1     -11.524  -2.750  19.056  0.00  0.00    +0.000 A 
ATOM     33  N   UNL     1     -11.519  -4.036  18.710  0.00  0.00    +0.000 N 
ATOM     34  C   UNL     1     -11.513  -4.484  17.442  0.00  0.00    +0.000 A 
ATOM     35  H   UNL     1     -11.533  -1.415  15.957  0.00  0.00    +0.000 HD
ATOM     36  H   UNL     1     -11.534  -0.724  18.330  0.00  0.00    +0.000 HD
ATOM     37  H   UNL     1     -11.518  -2.526  20.117  0.00  0.00    +0.000 HD
ATOM     38  H   UNL     1     -11.518  -4.775  19.427  0.00  0.00    +0.000 HD
BRANCH  29  39
ATOM     39  C   UNL     1     -11.496  -3.934  14.954  0.00  0.00    +0.000 C 
ATOM     40  H   UNL     1     -12.183  -4.763  14.749  0.00  0.00    +0.000 HD
ATOM     41  H   UNL     1     -10.495  -4.264  14.663  0.00  0.00    +0.000 HD
ATOM     42  H   UNL     1     -11.798  -3.087  14.329  0.00  0.00    +0.000 HD
ENDBRANCH  29  39
ENDBRANCH  27  34
ENDBRANCH   1  27
TORSDOF 6
ENDMDL
MODEL 7
REMARK VINA RESULT:    -9.953      1.301      7.924
REMARK INTER + INTRA:         -13.414
REMARK INTER:                 -13.003
REMARK INTRA:                  -0.412
REMARK UNBOUND:                -0.552
REMARK  Name = 
REMARK  6 active torsions:
REMARK  status: ('A' for Active; 'I' for Inactive)
REMARK    1  A    between atoms: C_1  and  C_2
REMARK    2  A    between atoms: C_7  and  N_8
REMARK    3  A    between atoms: N_8  and  C_9
REMARK    4  A    between atoms: N_14  and  C_15
REMARK    5  A    between atoms: C_15  and  C_16
REMARK    6  A    between atoms: C_22  and  N_23
REMARK                            x       y       z     vdW  Elec       q    Type
REMARK                         _______ _______ _______ _____ _____    ______ ____
ROOT
ATOM      1  C   UNL     1     -10.091  -8.345  17.192  0.00  0.00    +0.000 A 
ATOM      2  N   UNL     1     -10.227  -7.414  16.213  0.00  0.00    +0.000 NA
ATOM      3  C   UNL     1      -9.827  -6.167  16.539  0.00  0.00    +0.000 A 
ATOM      4  N   UNL     1      -9.334  -5.770  17.715  0.00  0.00    +0.000 NA
ATOM      5  C   UNL     1      -9.224  -6.702  18.673  0.00  0.00    +0.000 A 
ATOM      6  N   UNL     1      -8.663  -6.377  19.921  0.00  0.00    +0.000 N 
ATOM      7  C   UNL     1      -9.547  -8.054  18.451  0.00  0.00    +0.000 A 
ATOM      8  H   UNL     1      -9.915  -5.402  15.773  0.00  0.00    +0.000 HD
ATOM      9  H   UNL     1      -9.203  -6.829  20.654  0.00  0.00    +0.000 HD
ENDROOT
BRANCH   6  10
ATOM     10  C   UNL     1      -8.519  -4.958  20.228  0.00  0.00    +0.000 C 
ATOM     11  H   UNL     1      -9.128  -4.690  21.101  0.00  0.00    +0.000 HD
ATOM     12  H   UNL     1      -8.830  -4.316  19.394  0.00  0.00    +0.000 HD
BRANCH  10  13
ATOM     13  C   UNL     1      -7.058  -4.715  20.540  0.00  0.00    +0.000 A 
ATOM     14  C   UNL     1      -6.685  -3.755  21.491  0.00  0.00    +0.000 A 
ATOM     15  C   UNL     1      -5.338  -3.462  21.712  0.00  0.00    +0.000 A 
ATOM     16  C   UNL     1      -4.351  -4.118  20.978  0.00  0.00    +0.000 A 
ATOM     17  C   UNL     1      -4.708  -5.077  20.033  0.00  0.00    +0.000 A 
ATOM     18  C   UNL     1      -6.054  -5.378  19.816  0.00  0.00    +0.000 A 
ATOM     19  H   UNL     1      -7.444  -3.216  22.055  0.00  0.00    +0.000 HD
ATOM     20  H   UNL     1      -5.059  -2.713  22.449  0.00  0.00    +0.000 HD
ATOM     21  H   UNL     1      -3.304  -3.878  21.143  0.00  0.00    +0.000 HD
ATOM     22  H   UNL     1      -3.936  -5.585  19.460  0.00  0.00    +0.000 HD
ATOM     23  H   UNL     1      -6.314  -6.122  19.067  0.00  0.00    +0.000 HD
ENDBRANCH  10  13
ENDBRANCH   6  10
BRANCH   7  24
ATOM     24  N   UNL     1      -9.521  -8.975  19.527  0.00  0.00    +0.000 N 
ATOM     25  H   UNL     1     -10.012  -9.835  19.264  0.00  0.00    +0.000 HD
ATOM     26  H   UNL     1      -9.844  -8.655  20.427  0.00  0.00    +0.000 HD
ENDBRANCH   7  24
BRANCH   1  27
ATOM     27  N   UNL     1     -10.556  -9.659  16.919  0.00  0.00    +0.000 N 
ATOM     28  H   UNL     1     -11.306  -9.910  17.551  0.00  0.00    +0.000 HD
BRANCH  27  34
ATOM     29  C   UNL     1      -9.232 -10.945  15.279  0.00  0.00    +0.000 A 
ATOM     30  C   UNL     1      -8.398 -12.048  15.052  0.00  0.00    +0.000 A 
ATOM     31  C   UNL     1      -8.072 -12.912  16.092  0.00  0.00    +0.000 A 
ATOM     32  C   UNL     1      -8.594 -12.666  17.350  0.00  0.00    +0.000 A 
ATOM     33  N   UNL     1      -9.393 -11.616  17.535  0.00  0.00    +0.000 N 
ATOM     34  C   UNL     1      -9.749 -10.750  16.570  0.00  0.00    +0.000 A 
ATOM     35  H   UNL     1      -7.988 -12.239  14.058  0.00  0.00    +0.000 HD
ATOM     36  H   UNL     1      -7.418 -13.763  15.919  0.00  0.00    +0.000 HD
ATOM     37  H   UNL     1      -8.396 -13.291  18.213  0.00  0.00    +0.000 HD
ATOM     38  H   UNL     1      -9.790 -11.412  18.463  0.00  0.00    +0.000 HD
BRANCH  29  39
ATOM     39  C   UNL     1      -9.594 -10.055  14.123  0.00  0.00    +0.000 C 
ATOM     40  H   UNL     1      -8.942 -10.237  13.261  0.00  0.00    +0.000 HD
ATOM     41  H   UNL     1      -9.487  -9.000  14.392  0.00  0.00    +0.000 HD
ATOM     42  H   UNL     1     -10.625 -10.250  13.811  0.00  0.00    +0.000 HD
ENDBRANCH  29  39
ENDBRANCH  27  34
ENDBRANCH   1  27
TORSDOF 6
ENDMDL
MODEL 8
REMARK VINA RESULT:    -9.594      1.143      8.113
REMARK INTER + INTRA:         -12.950
REMARK INTER:                 -12.313
REMARK INTRA:                  -0.637
REMARK UNBOUND:                -0.552
REMARK  Name = 
REMARK  6 active torsions:
REMARK  status: ('A' for Active; 'I' for Inactive)
REMARK    1  A    between atoms: C_1  and  C_2
REMARK    2  A    between atoms: C_7  and  N_8
REMARK    3  A    between atoms: N_8  and  C_9
REMARK    4  A    between atoms: N_14  and  C_15
REMARK    5  A    between atoms: C_15  and  C_16
REMARK    6  A    between atoms: C_22  and  N_23
REMARK                            x       y       z     vdW  Elec       q    Type
REMARK                         _______ _______ _______ _____ _____    ______ ____
ROOT
ATOM      1  C   UNL     1      -9.111  -8.431  18.057  0.00  0.00    +0.000 A 
ATOM      2  N   UNL     1      -9.250  -9.046  19.259  0.00  0.00    +0.000 NA
ATOM      3  C   UNL     1      -8.778  -8.359  20.320  0.00  0.00    +0.000 A 
ATOM      4  N   UNL     1      -8.187  -7.162  20.296  0.00  0.00    +0.000 NA
ATOM      5  C   UNL     1      -8.046  -6.579  19.097  0.00  0.00    +0.000 A 
ATOM      6  N   UNL     1      -7.484  -5.294  18.991  0.00  0.00    +0.000 N 
ATOM      7  C   UNL     1      -8.546  -7.156  17.914  0.00  0.00    +0.000 A 
ATOM      8  H   UNL     1      -8.884  -8.822  21.297  0.00  0.00    +0.000 HD
ATOM      9  H   UNL     1      -6.859  -5.272  18.190  0.00  0.00    +0.000 HD
ENDROOT
BRANCH   6  10
ATOM     10  C   UNL     1      -6.785  -4.784  20.166  0.00  0.00    +0.000 C 
ATOM     11  H   UNL     1      -5.906  -4.198  19.867  0.00  0.00    +0.000 HD
ATOM     12  H   UNL     1      -6.441  -5.587  20.831  0.00  0.00    +0.000 HD
BRANCH  10  13
ATOM     13  C   UNL     1      -7.755  -3.890  20.909  0.00  0.00    +0.000 A 
ATOM     14  C   UNL     1      -8.653  -3.076  20.203  0.00  0.00    +0.000 A 
ATOM     15  C   UNL     1      -9.483  -2.182  20.882  0.00  0.00    +0.000 A 
ATOM     16  C   UNL     1      -9.417  -2.085  22.270  0.00  0.00    +0.000 A 
ATOM     17  C   UNL     1      -8.532  -2.891  22.984  0.00  0.00    +0.000 A 
ATOM     18  C   UNL     1      -7.708  -3.792  22.308  0.00  0.00    +0.000 A 
ATOM     19  H   UNL     1      -8.699  -3.123  19.117  0.00  0.00    +0.000 HD
ATOM     20  H   UNL     1     -10.173  -1.553  20.326  0.00  0.00    +0.000 HD
ATOM     21  H   UNL     1     -10.055  -1.378  22.795  0.00  0.00    +0.000 HD
ATOM     22  H   UNL     1      -8.480  -2.810  24.067  0.00  0.00    +0.000 HD
ATOM     23  H   UNL     1      -7.015  -4.406  22.881  0.00  0.00    +0.000 HD
ENDBRANCH  10  13
ENDBRANCH   6  10
BRANCH   7  24
ATOM     24  N   UNL     1      -8.270  -6.556  16.661  0.00  0.00    +0.000 N 
ATOM     25  H   UNL     1      -7.597  -5.792  16.778  0.00  0.00    +0.000 HD
ATOM     26  H   UNL     1      -9.053  -6.243  16.107  0.00  0.00    +0.000 HD
ENDBRANCH   7  24
BRANCH   1  27
ATOM     27  N   UNL     1      -9.535  -9.140  16.901  0.00  0.00    +0.000 N 
ATOM     28  H   UNL     1     -10.508  -8.945  16.703  0.00  0.00    +0.000 HD
BRANCH  27  34
ATOM     29  C   UNL     1      -8.953 -10.879  15.247  0.00  0.00    +0.000 A 
ATOM     30  C   UNL     1      -8.534 -12.199  15.032  0.00  0.00    +0.000 A 
ATOM     31  C   UNL     1      -8.308 -13.051  16.108  0.00  0.00    +0.000 A 
ATOM     32  C   UNL     1      -8.512 -12.573  17.390  0.00  0.00    +0.000 A 
ATOM     33  N   UNL     1      -8.918 -11.317  17.565  0.00  0.00    +0.000 N 
ATOM     34  C   UNL     1      -9.160 -10.448  16.568  0.00  0.00    +0.000 A 
ATOM     35  H   UNL     1      -8.376 -12.572  14.019  0.00  0.00    +0.000 HD
ATOM     36  H   UNL     1      -7.975 -14.072  15.942  0.00  0.00    +0.000 HD
ATOM     37  H   UNL     1      -8.364 -13.171  18.283  0.00  0.00    +0.000 HD
ATOM     38  H   UNL     1      -9.073 -10.939  18.511  0.00  0.00    +0.000 HD
BRANCH  29  39
ATOM     39  C   UNL     1      -9.225  -9.997  14.061  0.00  0.00    +0.000 C 
ATOM     40  H   UNL     1      -8.515  -9.164  14.013  0.00  0.00    +0.000 HD
ATOM     41  H   UNL     1     -10.228  -9.565  14.114  0.00  0.00    +0.000 HD
ATOM     42  H   UNL     1      -9.124 -10.576  13.136  0.00  0.00    +0.000 HD
ENDBRANCH  29  39
ENDBRANCH  27  34
ENDBRANCH   1  27
TORSDOF 6
ENDMDL
MODEL 9
REMARK VINA RESULT:    -9.547      3.135      3.835
REMARK INTER + INTRA:         -12.890
REMARK INTER:                 -12.129
REMARK INTRA:                  -0.761
REMARK UNBOUND:                -0.552
REMARK  Name = 
REMARK  6 active torsions:
REMARK  status: ('A' for Active; 'I' for Inactive)
REMARK    1  A    between atoms: C_1  and  C_2
REMARK    2  A    between atoms: C_7  and  N_8
REMARK    3  A    between atoms: N_8  and  C_9
REMARK    4  A    between atoms: N_14  and  C_15
REMARK    5  A    between atoms: C_15  and  C_16
REMARK    6  A    between atoms: C_22  and  N_23
REMARK                            x       y       z     vdW  Elec       q    Type
REMARK                         _______ _______ _______ _____ _____    ______ ____
ROOT
ATOM      1  C   UNL     1     -10.355  -5.339  18.220  0.00  0.00    +0.000 A 
ATOM      2  N   UNL     1      -9.163  -4.920  18.715  0.00  0.00    +0.000 NA
ATOM      3  C   UNL     1      -8.247  -5.889  18.921  0.00  0.00    +0.000 A 
ATOM      4  N   UNL     1      -8.408  -7.197  18.700  0.00  0.00    +0.000 NA
ATOM      5  C   UNL     1      -9.598  -7.590  18.226  0.00  0.00    +0.000 A 
ATOM      6  N   UNL     1      -9.829  -8.943  17.915  0.00  0.00    +0.000 N 
ATOM      7  C   UNL     1     -10.623  -6.679  17.909  0.00  0.00    +0.000 A 
ATOM      8  H   UNL     1      -7.280  -5.584  19.309  0.00  0.00    +0.000 HD
ATOM      9  H   UNL     1     -10.761  -9.199  18.228  0.00  0.00    +0.000 HD
ENDROOT
BRANCH   6  10
ATOM     10  C   UNL     1      -8.862  -9.909  18.426  0.00  0.00    +0.000 C 
ATOM     11  H   UNL     1      -9.228 -10.363  19.356  0.00  0.00    +0.000 HD
ATOM     12  H   UNL     1      -7.886  -9.453  18.637  0.00  0.00    +0.000 HD
BRANCH  10  13
ATOM     13  C   UNL     1      -8.705 -10.982  17.370  0.00  0.00    +0.000 A 
ATOM     14  C   UNL     1      -8.846 -10.666  16.011  0.00  0.00    +0.000 A 
ATOM     15  C   UNL     1      -8.795 -11.670  15.041  0.00  0.00    +0.000 A 
ATOM     16  C   UNL     1      -8.613 -12.999  15.420  0.00  0.00    +0.000 A 
ATOM     17  C   UNL     1      -8.468 -13.325  16.767  0.00  0.00    +0.000 A 
ATOM     18  C   UNL     1      -8.509 -12.323  17.738  0.00  0.00    +0.000 A 
ATOM     19  H   UNL     1      -9.013  -9.637  15.700  0.00  0.00    +0.000 HD
ATOM     20  H   UNL     1      -8.908 -11.416  13.990  0.00  0.00    +0.000 HD
ATOM     21  H   UNL     1      -8.587 -13.779  14.665  0.00  0.00    +0.000 HD
ATOM     22  H   UNL     1      -8.330 -14.363  17.060  0.00  0.00    +0.000 HD
ATOM     23  H   UNL     1      -8.405 -12.597  18.785  0.00  0.00    +0.000 HD
ENDBRANCH  10  13
ENDBRANCH   6  10
BRANCH   7  24
ATOM     24  N   UNL     1     -11.900  -7.154  17.520  0.00  0.00    +0.000 N 
ATOM     25  H   UNL     1     -12.511  -7.228  18.339  0.00  0.00    +0.000 HD
ATOM     26  H   UNL     1     -11.940  -8.006  16.982  0.00  0.00    +0.000 HD
ENDBRANCH   7  24
BRANCH   1  27
ATOM     27  N   UNL     1     -11.374  -4.364  18.044  0.00  0.00    +0.000 N 
ATOM     28  H   UNL     1     -11.785  -4.442  17.123  0.00  0.00    +0.000 HD
BRANCH  27  34
ATOM     29  C   UNL     1     -11.378  -1.924  17.665  0.00  0.00    +0.000 A 
ATOM     30  C   UNL     1     -11.365  -0.647  18.244  0.00  0.00    +0.000 A 
ATOM     31  C   UNL     1     -11.324  -0.500  19.626  0.00  0.00    +0.000 A 
ATOM     32  C   UNL     1     -11.288  -1.636  20.416  0.00  0.00    +0.000 A 
ATOM     33  N   UNL     1     -11.291  -2.837  19.839  0.00  0.00    +0.000 N 
ATOM     34  C   UNL     1     -11.324  -3.044  18.511  0.00  0.00    +0.000 A 
ATOM     35  H   UNL     1     -11.393   0.246  17.618  0.00  0.00    +0.000 HD
ATOM     36  H   UNL     1     -11.323   0.489  20.077  0.00  0.00    +0.000 HD
ATOM     37  H   UNL     1     -11.250  -1.611  21.500  0.00  0.00    +0.000 HD
ATOM     38  H   UNL     1     -11.268  -3.695  20.408  0.00  0.00    +0.000 HD
BRANCH  29  39
ATOM     39  C   UNL     1     -11.383  -2.045  16.167  0.00  0.00    +0.000 C 
ATOM     40  H   UNL     1     -10.367  -1.996  15.760  0.00  0.00    +0.000 HD
ATOM     41  H   UNL     1     -11.954  -1.232  15.710  0.00  0.00    +0.000 HD
ATOM     42  H   UNL     1     -11.816  -3.007  15.873  0.00  0.00    +0.000 HD
ENDBRANCH  29  39
ENDBRANCH  27  34
ENDBRANCH   1  27
TORSDOF 6
ENDMDL
