REMARK  Name = 
REMARK  3 active torsions:
REMARK  status: ('A' for Active; 'I' for Inactive)
REMARK    1  A    between atoms: C_1  and  C_2
REMARK    2  A    between atoms: N_5  and  C_6
REMARK    3  A    between atoms: C_19  and  N_20
REMARK                            x       y       z     vdW  Elec       q    Type
REMARK                         _______ _______ _______ _____ _____    ______ ____
ROOT
ATOM      1  C   UNL     1      -0.659   0.991  -0.090  0.00  0.00    +0.000 A 
ATOM      2  N   UNL     1      -1.213   0.212  -1.031  0.00  0.00    +0.000 N 
ATOM      3  C   UNL     1      -1.258  -1.104  -0.881  0.00  0.00    +0.000 A 
ATOM      4  N   UNL     1      -0.778  -1.749   0.190  0.00  0.00    +0.000 NA
ATOM      5  C   UNL     1      -0.226  -1.000   1.168  0.00  0.00    +0.000 A 
ATOM      6  N   UNL     1       0.304  -1.644   2.313  0.00  0.00    +0.000 N 
ATOM      7  C   UNL     1       0.583  -3.022   2.347  0.00  0.00    +0.000 A 
ATOM      8  C   UNL     1       1.350  -3.612   1.342  0.00  0.00    +0.000 A 
ATOM      9  C   UNL     1       1.550  -4.991   1.344  0.00  0.00    +0.000 A 
ATOM     10  C   UNL     1       0.996  -5.740   2.370  0.00  0.00    +0.000 A 
ATOM     11 CL   UNL     1       1.168  -7.445   2.387  0.00  0.00    +0.000 Cl
ATOM     12  C   UNL     1       0.291  -5.075   3.363  0.00  0.00    +0.000 A 
ATOM     13  N   UNL     1       0.082  -3.730   3.378  0.00  0.00    +0.000 NA
ATOM     14  C   UNL     1      -0.168   0.405   1.095  0.00  0.00    +0.000 A 
ATOM     15  H   UNL     1      -1.545   0.659  -1.889  0.00  0.00    +0.000 HD
ATOM     16  H   UNL     1      -1.681  -1.692  -1.687  0.00  0.00    +0.000 HD
ATOM     17  H   UNL     1      -0.264  -1.454   3.135  0.00  0.00    +0.000 HD
ATOM     18  H   UNL     1       1.776  -3.008   0.547  0.00  0.00    +0.000 HD
ATOM     19  H   UNL     1       2.120  -5.458   0.550  0.00  0.00    +0.000 HD
ATOM     20  H   UNL     1      -0.147  -5.618   4.194  0.00  0.00    +0.000 HD
ENDROOT
BRANCH   1  24
ATOM     21  C   UNL     1      -0.420   4.414  -3.173  0.00  0.00    +0.000 A 
ATOM     22  C   UNL     1      -0.177   4.247  -1.833  0.00  0.00    +0.000 A 
ATOM     23  C   UNL     1      -0.657   2.956  -1.548  0.00  0.00    +0.000 A 
ATOM     24  N   UNL     1      -0.521   2.367  -0.338  0.00  0.00    +0.000 N 
ATOM     25  N   UNL     1      -1.198   2.381  -2.633  0.00  0.00    +0.000 NA
ATOM     26  O   UNL     1      -1.044   3.303  -3.656  0.00  0.00    +0.000 OA
ATOM     27  H   UNL     1       0.311   4.952  -1.177  0.00  0.00    +0.000 HD
ATOM     28  H   UNL     1       0.077   2.815   0.353  0.00  0.00    +0.000 HD
BRANCH  21  29
ATOM     29  C   UNL     1      -0.137   5.488  -4.140  0.00  0.00    +0.000 C 
ATOM     30  H   UNL     1       0.234   6.384  -3.628  0.00  0.00    +0.000 HD
ATOM     31  H   UNL     1      -1.037   5.762  -4.697  0.00  0.00    +0.000 HD
ATOM     32  H   UNL     1       0.630   5.167  -4.853  0.00  0.00    +0.000 HD
ENDBRANCH  21  29
ENDBRANCH   1  24
BRANCH  14  33
ATOM     33  N   UNL     1       0.577   1.163   2.029  0.00  0.00    +0.000 N 
ATOM     34  H   UNL     1       0.891   0.616   2.834  0.00  0.00    +0.000 HD
ATOM     35  H   UNL     1       0.190   2.058   2.316  0.00  0.00    +0.000 HD
ENDBRANCH  14  33
TORSDOF 3
