REMARK  Name = 
REMARK  5 active torsions:
REMARK  status: ('A' for Active; 'I' for Inactive)
REMARK    1  A    between atoms: O_1  and  C_2
REMARK    2  A    between atoms: C_2  and  C_3
REMARK    3  A    between atoms: C_3  and  N_4
REMARK    4  A    between atoms: C_7  and  C_8
REMARK    5  A    between atoms: N_12  and  C_13
REMARK                            x       y       z     vdW  Elec       q    Type
REMARK                         _______ _______ _______ _____ _____    ______ ____
ROOT
ATOM      1  C   UNL     1       0.488   0.714  -0.474  0.00  0.00    +0.000 A 
ATOM      2  C   UNL     1       0.650   0.740  -1.848  0.00  0.00    +0.000 A 
ATOM      3  C   UNL     1       0.146  -0.313  -2.591  0.00  0.00    +0.000 A 
ATOM      4  C   UNL     1      -0.456  -1.384  -1.939  0.00  0.00    +0.000 A 
ATOM      5  N   UNL     1      -0.932  -2.452  -2.664  0.00  0.00    +0.000 N 
ATOM      6  N   UNL     1      -0.488  -1.369  -0.594  0.00  0.00    +0.000 N 
ATOM      7  N   UNL     1      -0.053  -0.356   0.143  0.00  0.00    +0.000 NA
ATOM      8  H   UNL     1       1.138   1.572  -2.347  0.00  0.00    +0.000 HD
ATOM      9  H   UNL     1       0.237  -0.301  -3.675  0.00  0.00    +0.000 HD
ATOM     10  H   UNL     1      -1.394  -2.233  -3.548  0.00  0.00    +0.000 HD
ATOM     11  H   UNL     1      -0.905  -2.162  -0.120  0.00  0.00    +0.000 HD
ENDROOT
BRANCH   1  15
ATOM     12  N   UNL     1       1.792   2.478   3.912  0.00  0.00    +0.000 N 
ATOM     13  C   UNL     1       1.424   2.753   2.578  0.00  0.00    +0.000 A 
ATOM     14  C   UNL     1       1.307   1.670   1.705  0.00  0.00    +0.000 A 
ATOM     15  C   UNL     1       0.805   1.844   0.399  0.00  0.00    +0.000 A 
ATOM     16  C   UNL     1       0.503   3.169   0.014  0.00  0.00    +0.000 A 
ATOM     17  C   UNL     1      -0.062   3.826  -1.121  0.00  0.00    +0.000 A 
ATOM     18  C   UNL     1      -0.098   5.179  -0.856  0.00  0.00    +0.000 A 
ATOM     19  N   UNL     1       0.413   5.374   0.400  0.00  0.00    +0.000 N 
ATOM     20  C   UNL     1       0.747   4.166   0.948  0.00  0.00    +0.000 A 
ATOM     21  N   UNL     1       1.198   4.021   2.199  0.00  0.00    +0.000 NA
ATOM     22  H   UNL     1       1.368   1.599   4.206  0.00  0.00    +0.000 HD
ATOM     23  H   UNL     1       1.549   0.677   2.073  0.00  0.00    +0.000 HD
ATOM     24  H   UNL     1      -0.421   3.379  -2.039  0.00  0.00    +0.000 HD
ATOM     25  H   UNL     1      -0.448   6.015  -1.451  0.00  0.00    +0.000 HD
ATOM     26  H   UNL     1       0.501   6.257   0.884  0.00  0.00    +0.000 HD
BRANCH  12  27
ATOM     27  C   UNL     1       1.328   3.507   4.862  0.00  0.00    +0.000 C 
ATOM     28  H   UNL     1       1.718   3.224   5.847  0.00  0.00    +0.000 HD
ATOM     29  H   UNL     1       1.735   4.498   4.630  0.00  0.00    +0.000 HD
BRANCH  27  30
ATOM     30  C   UNL     1      -0.210   3.533   4.944  0.00  0.00    +0.000 C 
ATOM     31  H   UNL     1      -0.538   4.213   5.735  0.00  0.00    +0.000 HD
ATOM     32  H   UNL     1      -0.666   3.857   4.003  0.00  0.00    +0.000 HD
BRANCH  30  33
ATOM     33  O   UNL     1      -0.705   2.219   5.233  0.00  0.00    +0.000 OA
ATOM     34  H   UNL     1      -1.672   2.306   5.311  0.00  0.00    +0.000 HD
ENDBRANCH  30  33
ENDBRANCH  27  30
ENDBRANCH  12  27
ENDBRANCH   1  15
BRANCH   5  35
ATOM     35  C   UNL     1      -1.091  -3.804  -2.158  0.00  0.00    +0.000 C 
ATOM     36  C   UNL     1       0.280  -4.440  -1.932  0.00  0.00    +0.000 C 
ATOM     37  C   UNL     1       0.124  -5.922  -2.242  0.00  0.00    +0.000 C 
ATOM     38  C   UNL     1      -1.243  -6.098  -2.890  0.00  0.00    +0.000 C 
ATOM     39  C   UNL     1      -1.751  -4.699  -3.202  0.00  0.00    +0.000 C 
ATOM     40  H   UNL     1      -1.687  -3.822  -1.238  0.00  0.00    +0.000 HD
ATOM     41  H   UNL     1       0.629  -4.277  -0.906  0.00  0.00    +0.000 HD
ATOM     42  H   UNL     1       1.038  -4.006  -2.596  0.00  0.00    +0.000 HD
ATOM     43  H   UNL     1       0.197  -6.524  -1.330  0.00  0.00    +0.000 HD
ATOM     44  H   UNL     1       0.924  -6.253  -2.913  0.00  0.00    +0.000 HD
ATOM     45  H   UNL     1      -1.922  -6.602  -2.193  0.00  0.00    +0.000 HD
ATOM     46  H   UNL     1      -1.186  -6.712  -3.795  0.00  0.00    +0.000 HD
ATOM     47  H   UNL     1      -2.844  -4.646  -3.141  0.00  0.00    +0.000 HD
ATOM     48  H   UNL     1      -1.467  -4.413  -4.221  0.00  0.00    +0.000 HD
ENDBRANCH   5  35
TORSDOF 5
