
 OpenBabel01112423043D

 47 49  0  0  1  0  0  0  0  0999 V2000
    1.4868   -1.2981   -4.7693 C   0  0  0  0  0  0  0  0  0  0  0  0
    0.3927   -1.7370   -3.8389 C   0  0  0  0  0  0  0  0  0  0  0  0
   -0.9558   -1.6393   -4.1928 C   0  0  0  0  0  0  0  0  0  0  0  0
   -1.9613   -2.0221   -3.2966 C   0  0  0  0  0  0  0  0  0  0  0  0
   -3.4099   -1.8749   -3.6667 C   0  0  0  0  0  0  0  0  0  0  0  0
   -1.6092   -2.5274   -2.0364 C   0  0  0  0  0  0  0  0  0  0  0  0
   -0.2657   -2.6753   -1.6856 C   0  0  0  0  0  0  0  0  0  0  0  0
    0.0773   -3.1507   -0.3912 N   0  0  0  0  0  0  0  0  0  0  0  0
    1.2635   -3.8785   -0.1473 C   0  0  0  0  0  0  0  0  0  0  0  0
    1.6813   -4.7435   -1.0799 N   0  3  0  0  0  0  0  0  0  0  0  0
    2.8148   -5.4129   -0.9172 C   0  0  0  0  0  0  0  0  0  0  0  0
    3.5937   -5.3240    0.1675 N   0  0  0  0  0  0  0  0  0  0  0  0
    3.1913   -4.4811    1.1364 C   0  0  0  0  0  0  0  0  0  0  0  0
    3.9785   -4.3289    2.2895 N   0  0  0  0  0  0  0  0  0  0  0  0
    5.0513   -5.3270    2.4518 C   0  0  0  0  0  0  0  0  0  0  0  0
    5.9654   -4.9618    3.6264 C   0  0  2  0  0  0  0  0  0  0  0  0
    5.2694   -4.7936    4.9663 C   0  0  0  0  0  0  0  0  0  0  0  0
    6.2266   -3.8798    5.6918 C   0  0  0  0  0  0  0  0  0  0  0  0
    6.7247   -2.9747    4.5838 C   0  0  0  0  0  0  0  0  0  0  0  0
    6.6155   -3.7034    3.3526 O   0  0  0  0  0  0  0  0  0  0  0  0
    1.9910   -3.7462    1.0480 C   0  0  0  0  0  0  0  0  0  0  0  0
    1.6522   -2.7683    2.0176 N   0  0  0  0  0  0  0  0  0  0  0  0
    0.7231   -2.2263   -2.5746 C   0  0  0  0  0  0  0  0  0  0  0  0
    1.0884   -0.9924   -5.7419 H   0  0  0  0  0  0  0  0  0  0  0  0
    2.1876   -2.1238   -4.9341 H   0  0  0  0  0  0  0  0  0  0  0  0
    2.0259   -0.4511   -4.3363 H   0  0  0  0  0  0  0  0  0  0  0  0
   -1.2273   -1.2397   -5.1696 H   0  0  0  0  0  0  0  0  0  0  0  0
   -3.5272   -1.4863   -4.6852 H   0  0  0  0  0  0  0  0  0  0  0  0
   -3.9079   -1.1787   -2.9848 H   0  0  0  0  0  0  0  0  0  0  0  0
   -3.9112   -2.8463   -3.6219 H   0  0  0  0  0  0  0  0  0  0  0  0
   -2.3937   -2.8157   -1.3382 H   0  0  0  0  0  0  0  0  0  0  0  0
    0.0619   -2.3388    0.2360 H   0  0  0  0  0  0  0  0  0  0  0  0
    1.1173   -4.8562   -1.9162 H   0  0  0  0  0  0  0  0  0  0  0  0
    3.1419   -6.0507   -1.7295 H   0  0  0  0  0  0  0  0  0  0  0  0
    4.3760   -3.3860    2.3086 H   0  0  0  0  0  0  0  0  0  0  0  0
    5.6704   -5.3640    1.5466 H   0  0  0  0  0  0  0  0  0  0  0  0
    4.6088   -6.3158    2.6221 H   0  0  0  0  0  0  0  0  0  0  0  0
    6.7558   -5.7191    3.7114 H   0  0  0  0  0  0  0  0  0  0  0  0
    5.1040   -5.7440    5.4814 H   0  0  0  0  0  0  0  0  0  0  0  0
    4.3016   -4.2907    4.8628 H   0  0  0  0  0  0  0  0  0  0  0  0
    7.0592   -4.4624    6.1027 H   0  0  0  0  0  0  0  0  0  0  0  0
    5.7634   -3.3247    6.5120 H   0  0  0  0  0  0  0  0  0  0  0  0
    7.7616   -2.6610    4.7348 H   0  0  0  0  0  0  0  0  0  0  0  0
    6.0997   -2.0815    4.4881 H   0  0  0  0  0  0  0  0  0  0  0  0
    2.1932   -2.9167    2.8756 H   0  0  0  0  0  0  0  0  0  0  0  0
    0.6599   -2.7167    2.2415 H   0  0  0  0  0  0  0  0  0  0  0  0
    1.7727   -2.2262   -2.2883 H   0  0  0  0  0  0  0  0  0  0  0  0
  1  2  1  0  0  0  0
  1 24  1  0  0  0  0
  1 25  1  0  0  0  0
  1 26  1  0  0  0  0
  2  3  1  0  0  0  0
  2 23  2  0  0  0  0
  3  4  2  0  0  0  0
  3 27  1  0  0  0  0
  4  5  1  0  0  0  0
  4  6  1  0  0  0  0
  5 28  1  0  0  0  0
  5 29  1  0  0  0  0
  5 30  1  0  0  0  0
  6  7  2  0  0  0  0
  6 31  1  0  0  0  0
  7  8  1  0  0  0  0
  7 23  1  0  0  0  0
  8  9  1  0  0  0  0
  8 32  1  0  0  0  0
  9 10  1  0  0  0  0
  9 21  2  0  0  0  0
 10 11  2  0  0  0  0
 10 33  1  0  0  0  0
 11 12  1  0  0  0  0
 11 34  1  0  0  0  0
 12 13  2  0  0  0  0
 13 14  1  0  0  0  0
 13 21  1  0  0  0  0
 14 15  1  0  0  0  0
 14 35  1  0  0  0  0
 15 16  1  0  0  0  0
 15 36  1  0  0  0  0
 15 37  1  0  0  0  0
 16 17  1  0  0  0  0
 16 20  1  0  0  0  0
 16 38  1  1  0  0  0
 17 18  1  0  0  0  0
 17 39  1  0  0  0  0
 17 40  1  0  0  0  0
 18 19  1  0  0  0  0
 18 41  1  0  0  0  0
 18 42  1  0  0  0  0
 19 20  1  0  0  0  0
 19 43  1  0  0  0  0
 19 44  1  0  0  0  0
 21 22  1  0  0  0  0
 22 45  1  0  0  0  0
 22 46  1  0  0  0  0
 23 47  1  0  0  0  0
M  CHG  1  10   1
M  END
$$$$
