
 OpenBabel01112423073D

 47 49  0  0  0  0  0  0  0  0999 V2000
    7.9791    5.0905    4.0472 C   0  0  0  0  0  0  0  0  0  0  0  0
    6.9208    5.5182    3.0473 C   0  0  0  0  0  0  0  0  0  0  0  0
    5.8904    4.5214    2.9524 O   0  0  0  0  0  0  0  0  0  0  0  0
    4.9247    4.7486    1.9967 C   0  0  0  0  0  0  0  0  0  0  0  0
    4.8630    5.9072    1.2089 C   0  0  0  0  0  0  0  0  0  0  0  0
    3.8791    6.0651    0.2310 C   0  0  0  0  0  0  0  0  0  0  0  0
    2.9660    5.0493   -0.0076 C   0  0  0  0  0  0  0  0  0  0  0  0
    3.0134    3.8951    0.7671 C   0  0  0  0  0  0  0  0  0  0  0  0
    3.9343    3.7596    1.8245 C   0  0  0  0  0  0  0  0  0  0  0  0
    3.8813    2.6039    2.6672 N   0  0  0  0  0  0  0  0  0  0  0  0
    2.6839    1.9143    2.9467 C   0  0  0  0  0  0  0  0  0  0  0  0
    1.5790    2.6560    3.0984 N   0  3  0  0  0  0  0  0  0  0  0  0
    0.3803    2.0983    3.1803 C   0  0  0  0  0  0  0  0  0  0  0  0
    0.1575    0.7818    3.1402 N   0  0  0  0  0  0  0  0  0  0  0  0
    1.2496   -0.0021    3.0852 C   0  0  0  0  0  0  0  0  0  0  0  0
    1.0862   -1.3877    3.0287 N   0  0  0  0  0  0  0  0  0  0  0  0
   -0.2240   -1.9131    2.6262 C   0  0  0  0  0  0  0  0  0  0  0  0
   -0.4873   -1.7124    1.1193 C   0  0  0  0  0  0  0  0  0  0  0  0
    0.5683   -2.3629    0.2628 C   0  0  0  0  0  0  0  0  0  0  0  0
    0.6116   -3.6641   -0.1972 C   0  0  0  0  0  0  0  0  0  0  0  0
    1.8101   -3.9442   -0.9154 C   0  0  0  0  0  0  0  0  0  0  0  0
    2.6329   -2.8438   -0.9990 C   0  0  0  0  0  0  0  0  0  0  0  0
    1.9370   -1.4687   -0.2637 S   0  0  0  0  0  0  0  0  0  0  0  0
    2.5657    0.5160    2.9909 C   0  0  0  0  0  0  0  0  0  0  0  0
    3.6688   -0.3570    3.0552 N   0  0  0  0  0  0  0  0  0  0  0  0
    8.7161    5.8893    4.1838 H   0  0  0  0  0  0  0  0  0  0  0  0
    8.5024    4.1952    3.6975 H   0  0  0  0  0  0  0  0  0  0  0  0
    7.5319    4.8531    5.0166 H   0  0  0  0  0  0  0  0  0  0  0  0
    7.4092    5.6581    2.0748 H   0  0  0  0  0  0  0  0  0  0  0  0
    6.4836    6.4641    3.3884 H   0  0  0  0  0  0  0  0  0  0  0  0
    5.5706    6.7230    1.3243 H   0  0  0  0  0  0  0  0  0  0  0  0
    3.8476    6.9761   -0.3638 H   0  0  0  0  0  0  0  0  0  0  0  0
    2.2312    5.1518   -0.8034 H   0  0  0  0  0  0  0  0  0  0  0  0
    2.3159    3.0973    0.5143 H   0  0  0  0  0  0  0  0  0  0  0  0
    4.6422    1.9786    2.4041 H   0  0  0  0  0  0  0  0  0  0  0  0
    1.6885    3.6638    3.1147 H   0  0  0  0  0  0  0  0  0  0  0  0
   -0.4778    2.7597    3.2454 H   0  0  0  0  0  0  0  0  0  0  0  0
    1.5079   -1.8528    3.8258 H   0  0  0  0  0  0  0  0  0  0  0  0
   -1.0354   -1.4633    3.2161 H   0  0  0  0  0  0  0  0  0  0  0  0
   -0.2431   -2.9865    2.8503 H   0  0  0  0  0  0  0  0  0  0  0  0
   -0.5612   -0.6446    0.8790 H   0  0  0  0  0  0  0  0  0  0  0  0
   -1.4642   -2.1465    0.8701 H   0  0  0  0  0  0  0  0  0  0  0  0
   -0.1682   -4.3930   -0.0096 H   0  0  0  0  0  0  0  0  0  0  0  0
    2.0594   -4.9076   -1.3438 H   0  0  0  0  0  0  0  0  0  0  0  0
    3.6027   -2.7788   -1.4735 H   0  0  0  0  0  0  0  0  0  0  0  0
    3.4583   -1.2635    2.6279 H   0  0  0  0  0  0  0  0  0  0  0  0
    4.6005   -0.0238    2.8366 H   0  0  0  0  0  0  0  0  0  0  0  0
  1  2  1  0  0  0  0
  1 26  1  0  0  0  0
  1 27  1  0  0  0  0
  1 28  1  0  0  0  0
  2  3  1  0  0  0  0
  2 29  1  0  0  0  0
  2 30  1  0  0  0  0
  3  4  1  0  0  0  0
  4  5  1  0  0  0  0
  4  9  2  0  0  0  0
  5  6  2  0  0  0  0
  5 31  1  0  0  0  0
  6  7  1  0  0  0  0
  6 32  1  0  0  0  0
  7  8  2  0  0  0  0
  7 33  1  0  0  0  0
  8  9  1  0  0  0  0
  8 34  1  0  0  0  0
  9 10  1  0  0  0  0
 10 11  1  0  0  0  0
 10 35  1  0  0  0  0
 11 12  1  0  0  0  0
 11 24  2  0  0  0  0
 12 13  2  0  0  0  0
 12 36  1  0  0  0  0
 13 14  1  0  0  0  0
 13 37  1  0  0  0  0
 14 15  2  0  0  0  0
 15 16  1  0  0  0  0
 15 24  1  0  0  0  0
 16 17  1  0  0  0  0
 16 38  1  0  0  0  0
 17 18  1  0  0  0  0
 17 39  1  0  0  0  0
 17 40  1  0  0  0  0
 18 19  1  0  0  0  0
 18 41  1  0  0  0  0
 18 42  1  0  0  0  0
 19 20  2  0  0  0  0
 19 23  1  0  0  0  0
 20 21  1  0  0  0  0
 20 43  1  0  0  0  0
 21 22  2  0  0  0  0
 21 44  1  0  0  0  0
 22 23  1  0  0  0  0
 22 45  1  0  0  0  0
 24 25  1  0  0  0  0
 25 46  1  0  0  0  0
 25 47  1  0  0  0  0
M  CHG  1  12   1
M  END
$$$$
