REMARK  Name = 
REMARK  6 active torsions:
REMARK  status: ('A' for Active; 'I' for Inactive)
REMARK    1  A    between atoms: C_1  and  C_2
REMARK    2  A    between atoms: C_2  and  N_3
REMARK    3  A    between atoms: N_20  and  C_21
REMARK    4  A    between atoms: C_21  and  C_22
REMARK    5  A    between atoms: C_22  and  C_23
REMARK    6  A    between atoms: C_23  and  O_24
REMARK                            x       y       z     vdW  Elec       q    Type
REMARK                         _______ _______ _______ _____ _____    ______ ____
ROOT
ATOM      1  N   UNL     1      -2.688  -3.006   1.380  0.00  0.00    +0.000 N 
ATOM      2  C   UNL     1      -2.225  -4.315   1.357  0.00  0.00    +0.000 A 
ATOM      3  C   UNL     1      -1.653  -4.494   0.135  0.00  0.00    +0.000 A 
ATOM      4  C   UNL     1      -0.947  -3.278   0.121  0.00  0.00    +0.000 A 
ATOM      5  C   UNL     1       0.397  -3.057  -0.134  0.00  0.00    +0.000 A 
ATOM      6  C   UNL     1       0.881  -1.775  -0.036  0.00  0.00    +0.000 A 
ATOM      7  C   UNL     1       0.019  -0.680   0.061  0.00  0.00    +0.000 A 
ATOM      8  C   UNL     1      -1.375  -0.878   0.393  0.00  0.00    +0.000 A 
ATOM      9  C   UNL     1      -2.145   0.296   0.318  0.00  0.00    +0.000 A 
ATOM     10  C   UNL     1      -1.683   1.612  -0.029  0.00  0.00    +0.000 A 
ATOM     11  C   UNL     1      -0.268   1.752  -0.285  0.00  0.00    +0.000 A 
ATOM     12  C   UNL     1       0.359   2.923  -0.657  0.00  0.00    +0.000 A 
ATOM     13  C   UNL     1       0.041   4.280  -0.902  0.00  0.00    +0.000 A 
ATOM     14  C   UNL     1       1.027   5.208  -1.250  0.00  0.00    +0.000 A 
ATOM     15  C   UNL     1       2.347   4.815  -1.356  0.00  0.00    +0.000 A 
ATOM     16  C   UNL     1       2.709   3.479  -1.134  0.00  0.00    +0.000 A 
ATOM     17  C   UNL     1       1.708   2.535  -0.797  0.00  0.00    +0.000 A 
ATOM     18  N   UNL     1       1.792   1.156  -0.546  0.00  0.00    +0.000 N 
ATOM     19  C   UNL     1       0.531   0.628  -0.221  0.00  0.00    +0.000 A 
ATOM     20  C   UNL     1      -2.775   2.542  -0.100  0.00  0.00    +0.000 C 
ATOM     21  O   UNL     1      -2.904   3.724  -0.408  0.00  0.00    +0.000 OA
ATOM     22  N   UNL     1      -3.838   1.745   0.248  0.00  0.00    +0.000 N 
ATOM     23  C   UNL     1      -3.580   0.429   0.472  0.00  0.00    +0.000 C 
ATOM     24  O   UNL     1      -4.482  -0.375   0.677  0.00  0.00    +0.000 OA
ATOM     25  C   UNL     1      -1.766  -2.245   0.646  0.00  0.00    +0.000 A 
ATOM     26  H   UNL     1      -2.162  -4.924   2.252  0.00  0.00    +0.000 HD
ATOM     27  H   UNL     1      -1.276  -5.430  -0.265  0.00  0.00    +0.000 HD
ATOM     28  H   UNL     1       1.068  -3.899  -0.277  0.00  0.00    +0.000 HD
ATOM     29  H   UNL     1       1.945  -1.723  -0.112  0.00  0.00    +0.000 HD
ATOM     30  H   UNL     1      -0.977   4.651  -0.831  0.00  0.00    +0.000 HD
ATOM     31  H   UNL     1       0.747   6.248  -1.436  0.00  0.00    +0.000 HD
ATOM     32  H   UNL     1       3.104   5.550  -1.621  0.00  0.00    +0.000 HD
ATOM     33  H   UNL     1       3.754   3.200  -1.226  0.00  0.00    +0.000 HD
ATOM     34  H   UNL     1      -4.776   2.113   0.231  0.00  0.00    +0.000 HD
ENDROOT
BRANCH   1  35
ATOM     35  C   UNL     1      -3.761  -2.709   2.304  0.00  0.00    +0.000 C 
ATOM     36  H   UNL     1      -4.638  -2.427   1.718  0.00  0.00    +0.000 HD
ATOM     37  H   UNL     1      -4.063  -3.667   2.782  0.00  0.00    +0.000 HD
BRANCH  35  38
ATOM     38  C   UNL     1      -3.454  -1.732   3.416  0.00  0.00    +0.000 C 
ATOM     39  H   UNL     1      -4.374  -1.207   3.690  0.00  0.00    +0.000 HD
ATOM     40  H   UNL     1      -2.700  -1.007   3.124  0.00  0.00    +0.000 HD
ATOM     41  H   UNL     1      -3.102  -2.254   4.317  0.00  0.00    +0.000 HD
ENDBRANCH  35  38
ENDBRANCH   1  35
BRANCH  18  42
ATOM     42  C   UNL     1       3.058   0.427  -0.538  0.00  0.00    +0.000 C 
ATOM     43  H   UNL     1       3.032  -0.270   0.302  0.00  0.00    +0.000 HD
ATOM     44  H   UNL     1       3.850   1.122  -0.258  0.00  0.00    +0.000 HD
BRANCH  42  45
ATOM     45  C   UNL     1       3.394  -0.282  -1.863  0.00  0.00    +0.000 C 
ATOM     46  H   UNL     1       3.521   0.475  -2.647  0.00  0.00    +0.000 HD
ATOM     47  H   UNL     1       2.585  -0.942  -2.192  0.00  0.00    +0.000 HD
BRANCH  45  48
ATOM     48  C   UNL     1       4.679  -1.097  -1.750  0.00  0.00    +0.000 C 
ATOM     49  H   UNL     1       4.931  -1.570  -2.706  0.00  0.00    +0.000 HD
ATOM     50  H   UNL     1       4.584  -1.893  -1.002  0.00  0.00    +0.000 HD
BRANCH  48  51
ATOM     51  O   UNL     1       5.758  -0.257  -1.367  0.00  0.00    +0.000 OA
ATOM     52  H   UNL     1       5.793   0.484  -1.996  0.00  0.00    +0.000 HD
ENDBRANCH  48  51
ENDBRANCH  45  48
ENDBRANCH  42  45
ENDBRANCH  18  42
TORSDOF 6
