MODEL 1
REMARK VINA RESULT:   -10.442      0.000      0.000
REMARK INTER + INTRA:         -13.725
REMARK INTER:                 -13.800
REMARK INTRA:                   0.075
REMARK UNBOUND:                 0.075
REMARK  Name = 
REMARK  7 active torsions:
REMARK  status: ('A' for Active; 'I' for Inactive)
REMARK    1  A    between atoms: C_1  and  C_2
REMARK    2  A    between atoms: C_4  and  C_5
REMARK    3  A    between atoms: C_4  and  C_6
REMARK    4  A    between atoms: N_13  and  C_14
REMARK    5  A    between atoms: C_14  and  C_15
REMARK    6  A    between atoms: N_17  and  C_18
REMARK    7  A    between atoms: C_21  and  C_22
REMARK                            x       y       z     vdW  Elec       q    Type
REMARK                         _______ _______ _______ _____ _____    ______ ____
ROOT
ATOM      1  C   UNL     1     -11.634  -3.376  13.448  0.00  0.00    +0.000 C 
ATOM      2  C   UNL     1     -11.971  -2.000  14.036  0.00  0.00    +0.000 C 
ATOM      3  C   UNL     1     -11.451  -1.813  15.487  0.00  0.00    +0.000 C 
ATOM      4  C   UNL     1     -11.842  -3.030  16.375  0.00  0.00    +0.000 C 
ATOM      5  C   UNL     1     -11.634  -4.425  15.747  0.00  0.00    +0.000 C 
ATOM      6  C   UNL     1     -12.209  -4.499  14.331  0.00  0.00    +0.000 C 
ATOM      7  N   UNL     1     -12.165  -5.453  16.633  0.00  0.00    +0.000 N 
ATOM      8  C   UNL     1     -11.187  -6.276  17.149  0.00  0.00    +0.000 C 
ATOM      9  O   UNL     1     -11.388  -7.315  17.750  0.00  0.00    +0.000 OA
ATOM     10  N   UNL     1      -9.969  -5.801  16.759  0.00  0.00    +0.000 N 
ATOM     11  C   UNL     1     -10.179  -4.948  15.717  0.00  0.00    +0.000 C 
ATOM     12  O   UNL     1      -9.354  -4.743  14.833  0.00  0.00    +0.000 OA
ATOM     13  H   UNL     1     -10.545  -3.452  13.405  0.00  0.00    +0.000 HD
ATOM     14  H   UNL     1     -13.062  -1.869  14.018  0.00  0.00    +0.000 HD
ATOM     15  H   UNL     1     -11.555  -1.213  13.394  0.00  0.00    +0.000 HD
ATOM     16  H   UNL     1     -12.917  -2.935  16.605  0.00  0.00    +0.000 HD
ATOM     17  H   UNL     1     -11.334  -2.962  17.345  0.00  0.00    +0.000 HD
ATOM     18  H   UNL     1     -13.305  -4.428  14.364  0.00  0.00    +0.000 HD
ATOM     19  H   UNL     1     -11.980  -5.476  13.885  0.00  0.00    +0.000 HD
ATOM     20  H   UNL     1     -13.143  -5.682  16.763  0.00  0.00    +0.000 HD
ENDROOT
BRANCH   1  21
ATOM     21  C   UNL     1     -12.083  -3.529  12.001  0.00  0.00    +0.000 C 
ATOM     22  H   UNL     1     -12.915  -2.851  11.787  0.00  0.00    +0.000 HD
ATOM     23  H   UNL     1     -12.397  -4.553  11.777  0.00  0.00    +0.000 HD
ATOM     24  H   UNL     1     -11.263  -3.262  11.326  0.00  0.00    +0.000 HD
ENDBRANCH   1  21
BRANCH   3  25
ATOM     25  C   UNL     1      -9.925  -1.589  15.509  0.00  0.00    +0.000 C 
ATOM     26  H   UNL     1      -9.412  -2.423  16.003  0.00  0.00    +0.000 HD
ATOM     27  H   UNL     1      -9.633  -0.687  16.046  0.00  0.00    +0.000 HD
ATOM     28  H   UNL     1      -9.522  -1.518  14.493  0.00  0.00    +0.000 HD
ENDBRANCH   3  25
BRANCH   3  29
ATOM     29  C   UNL     1     -12.085  -0.525  16.066  0.00  0.00    +0.000 C 
ATOM     30  H   UNL     1     -11.314   0.146  16.466  0.00  0.00    +0.000 HD
ATOM     31  H   UNL     1     -12.778  -0.755  16.882  0.00  0.00    +0.000 HD
ATOM     32  H   UNL     1     -12.636   0.032  15.302  0.00  0.00    +0.000 HD
ENDBRANCH   3  29
BRANCH  10  33
ATOM     33  C   UNL     1      -8.731  -6.524  16.925  0.00  0.00    +0.000 C 
ATOM     34  H   UNL     1      -8.533  -6.687  17.992  0.00  0.00    +0.000 HD
ATOM     35  H   UNL     1      -7.891  -5.954  16.516  0.00  0.00    +0.000 HD
BRANCH  33  36
ATOM     36  C   UNL     1      -8.828  -7.903  16.292  0.00  0.00    +0.000 C 
ATOM     37  O   UNL     1      -8.852  -7.997  15.067  0.00  0.00    +0.000 OA
ATOM     38  N   UNL     1      -8.867  -8.975  17.186  0.00  0.00    +0.000 N 
ATOM     39  H   UNL     1      -8.995  -8.767  18.170  0.00  0.00    +0.000 HD
BRANCH  38  40
ATOM     40  C   UNL     1      -8.947 -10.332  16.789  0.00  0.00    +0.000 A 
ATOM     41  C   UNL     1      -8.832 -11.376  17.713  0.00  0.00    +0.000 A 
ATOM     42  C   UNL     1      -8.764 -12.705  17.305  0.00  0.00    +0.000 A 
ATOM     43  C   UNL     1      -8.849 -13.039  15.952  0.00  0.00    +0.000 A 
ATOM     44  C   UNL     1      -9.053 -12.003  15.025  0.00  0.00    +0.000 A 
ATOM     45  C   UNL     1      -9.114 -10.661  15.437  0.00  0.00    +0.000 A 
ATOM     46  H   UNL     1      -8.789 -11.185  18.781  0.00  0.00    +0.000 HD
ATOM     47  H   UNL     1      -8.619 -13.472  18.063  0.00  0.00    +0.000 HD
ATOM     48  H   UNL     1      -9.139 -12.244  13.963  0.00  0.00    +0.000 HD
ATOM     49  H   UNL     1      -9.240  -9.889  14.683  0.00  0.00    +0.000 HD
BRANCH  43  50
ATOM     50  C   UNL     1      -8.714 -14.479  15.525  0.00  0.00    +0.000 C 
ATOM     51  F   UNL     1      -7.515 -14.762  14.939  0.00  0.00    +0.000 F 
ATOM     52  F   UNL     1      -8.830 -15.348  16.566  0.00  0.00    +0.000 F 
ATOM     53  F   UNL     1      -9.661 -14.847  14.618  0.00  0.00    +0.000 F 
ENDBRANCH  43  50
ENDBRANCH  38  40
ENDBRANCH  33  36
ENDBRANCH  10  33
TORSDOF 7
ENDMDL
MODEL 2
REMARK VINA RESULT:   -10.436      1.734      2.586
REMARK INTER + INTRA:         -13.716
REMARK INTER:                 -13.530
REMARK INTRA:                  -0.186
REMARK UNBOUND:                 0.075
REMARK  Name = 
REMARK  7 active torsions:
REMARK  status: ('A' for Active; 'I' for Inactive)
REMARK    1  A    between atoms: C_1  and  C_2
REMARK    2  A    between atoms: C_4  and  C_5
REMARK    3  A    between atoms: C_4  and  C_6
REMARK    4  A    between atoms: N_13  and  C_14
REMARK    5  A    between atoms: C_14  and  C_15
REMARK    6  A    between atoms: N_17  and  C_18
REMARK    7  A    between atoms: C_21  and  C_22
REMARK                            x       y       z     vdW  Elec       q    Type
REMARK                         _______ _______ _______ _____ _____    ______ ____
ROOT
ATOM      1  C   UNL     1     -12.201  -1.005  15.921  0.00  0.00    +0.000 C 
ATOM      2  C   UNL     1     -11.517  -0.127  16.977  0.00  0.00    +0.000 C 
ATOM      3  C   UNL     1     -10.282  -0.806  17.627  0.00  0.00    +0.000 C 
ATOM      4  C   UNL     1     -10.626  -2.253  18.087  0.00  0.00    +0.000 C 
ATOM      5  C   UNL     1     -11.432  -3.111  17.088  0.00  0.00    +0.000 C 
ATOM      6  C   UNL     1     -12.638  -2.349  16.533  0.00  0.00    +0.000 C 
ATOM      7  N   UNL     1     -11.793  -4.382  17.704  0.00  0.00    +0.000 N 
ATOM      8  C   UNL     1     -11.180  -5.461  17.107  0.00  0.00    +0.000 C 
ATOM      9  O   UNL     1     -11.462  -6.628  17.305  0.00  0.00    +0.000 OA
ATOM     10  N   UNL     1     -10.304  -5.000  16.167  0.00  0.00    +0.000 N 
ATOM     11  C   UNL     1     -10.636  -3.705  15.903  0.00  0.00    +0.000 C 
ATOM     12  O   UNL     1     -10.428  -3.159  14.824  0.00  0.00    +0.000 OA
ATOM     13  H   UNL     1     -11.477  -1.175  15.121  0.00  0.00    +0.000 HD
ATOM     14  H   UNL     1     -12.251   0.122  17.755  0.00  0.00    +0.000 HD
ATOM     15  H   UNL     1     -11.214   0.826  16.522  0.00  0.00    +0.000 HD
ATOM     16  H   UNL     1     -11.231  -2.169  19.006  0.00  0.00    +0.000 HD
ATOM     17  H   UNL     1      -9.710  -2.773  18.394  0.00  0.00    +0.000 HD
ATOM     18  H   UNL     1     -13.375  -2.177  17.330  0.00  0.00    +0.000 HD
ATOM     19  H   UNL     1     -13.146  -2.956  15.773  0.00  0.00    +0.000 HD
ATOM     20  H   UNL     1     -12.527  -4.527  18.387  0.00  0.00    +0.000 HD
ENDROOT
BRANCH   1  21
ATOM     21  C   UNL     1     -13.368  -0.309  15.235  0.00  0.00    +0.000 C 
ATOM     22  H   UNL     1     -13.858   0.385  15.927  0.00  0.00    +0.000 HD
ATOM     23  H   UNL     1     -14.111  -1.022  14.867  0.00  0.00    +0.000 HD
ATOM     24  H   UNL     1     -13.004   0.281  14.386  0.00  0.00    +0.000 HD
ENDBRANCH   1  21
BRANCH   3  25
ATOM     25  C   UNL     1      -9.075  -0.811  16.666  0.00  0.00    +0.000 C 
ATOM     26  H   UNL     1      -8.361  -1.598  16.936  0.00  0.00    +0.000 HD
ATOM     27  H   UNL     1      -8.519   0.126  16.673  0.00  0.00    +0.000 HD
ATOM     28  H   UNL     1      -9.393  -1.003  15.635  0.00  0.00    +0.000 HD
ENDBRANCH   3  25
BRANCH   3  29
ATOM     29  C   UNL     1      -9.854   0.038  18.852  0.00  0.00    +0.000 C 
ATOM     30  H   UNL     1     -10.519   0.900  18.986  0.00  0.00    +0.000 HD
ATOM     31  H   UNL     1      -8.836   0.422  18.735  0.00  0.00    +0.000 HD
ATOM     32  H   UNL     1      -9.890  -0.547  19.777  0.00  0.00    +0.000 HD
ENDBRANCH   3  29
BRANCH  10  33
ATOM     33  C   UNL     1      -9.647  -5.840  15.195  0.00  0.00    +0.000 C 
ATOM     34  H   UNL     1      -8.818  -5.293  14.727  0.00  0.00    +0.000 HD
ATOM     35  H   UNL     1     -10.342  -6.131  14.401  0.00  0.00    +0.000 HD
BRANCH  33  36
ATOM     36  C   UNL     1      -9.031  -7.056  15.868  0.00  0.00    +0.000 C 
ATOM     37  O   UNL     1      -7.993  -6.920  16.513  0.00  0.00    +0.000 OA
ATOM     38  N   UNL     1      -9.728  -8.255  15.703  0.00  0.00    +0.000 N 
ATOM     39  H   UNL     1     -10.483  -8.274  15.027  0.00  0.00    +0.000 HD
BRANCH  38  40
ATOM     40  C   UNL     1      -9.319  -9.490  16.261  0.00  0.00    +0.000 A 
ATOM     41  C   UNL     1      -9.124 -10.626  15.469  0.00  0.00    +0.000 A 
ATOM     42  C   UNL     1      -8.865 -11.871  16.033  0.00  0.00    +0.000 A 
ATOM     43  C   UNL     1      -8.752 -12.015  17.417  0.00  0.00    +0.000 A 
ATOM     44  C   UNL     1      -8.859 -10.864  18.215  0.00  0.00    +0.000 A 
ATOM     45  C   UNL     1      -9.129  -9.608  17.645  0.00  0.00    +0.000 A 
ATOM     46  H   UNL     1      -9.171 -10.576  14.386  0.00  0.00    +0.000 HD
ATOM     47  H   UNL     1      -8.777 -12.731  15.372  0.00  0.00    +0.000 HD
ATOM     48  H   UNL     1      -8.758 -10.952  19.299  0.00  0.00    +0.000 HD
ATOM     49  H   UNL     1      -9.235  -8.749  18.301  0.00  0.00    +0.000 HD
BRANCH  43  50
ATOM     50  C   UNL     1      -8.530 -13.383  18.014  0.00  0.00    +0.000 C 
ATOM     51  F   UNL     1      -9.499 -13.753  18.900  0.00  0.00    +0.000 F 
ATOM     52  F   UNL     1      -8.496 -14.366  17.073  0.00  0.00    +0.000 F 
ATOM     53  F   UNL     1      -7.355 -13.472  18.696  0.00  0.00    +0.000 F 
ENDBRANCH  43  50
ENDBRANCH  38  40
ENDBRANCH  33  36
ENDBRANCH  10  33
TORSDOF 7
ENDMDL
MODEL 3
REMARK VINA RESULT:   -10.376      1.965      2.972
REMARK INTER + INTRA:         -13.637
REMARK INTER:                 -12.998
REMARK INTRA:                  -0.639
REMARK UNBOUND:                 0.075
REMARK  Name = 
REMARK  7 active torsions:
REMARK  status: ('A' for Active; 'I' for Inactive)
REMARK    1  A    between atoms: C_1  and  C_2
REMARK    2  A    between atoms: C_4  and  C_5
REMARK    3  A    between atoms: C_4  and  C_6
REMARK    4  A    between atoms: N_13  and  C_14
REMARK    5  A    between atoms: C_14  and  C_15
REMARK    6  A    between atoms: N_17  and  C_18
REMARK    7  A    between atoms: C_21  and  C_22
REMARK                            x       y       z     vdW  Elec       q    Type
REMARK                         _______ _______ _______ _____ _____    ______ ____
ROOT
ATOM      1  C   UNL     1     -12.716  -1.335  15.589  0.00  0.00    +0.000 C 
ATOM      2  C   UNL     1     -12.038  -1.163  14.223  0.00  0.00    +0.000 C 
ATOM      3  C   UNL     1     -10.914  -2.202  13.967  0.00  0.00    +0.000 C 
ATOM      4  C   UNL     1      -9.947  -2.281  15.184  0.00  0.00    +0.000 C 
ATOM      5  C   UNL     1     -10.609  -2.320  16.578  0.00  0.00    +0.000 C 
ATOM      6  C   UNL     1     -11.681  -1.237  16.725  0.00  0.00    +0.000 C 
ATOM      7  N   UNL     1      -9.588  -2.257  17.616  0.00  0.00    +0.000 N 
ATOM      8  C   UNL     1      -9.505  -3.414  18.360  0.00  0.00    +0.000 C 
ATOM      9  O   UNL     1      -8.877  -3.541  19.394  0.00  0.00    +0.000 OA
ATOM     10  N   UNL     1     -10.347  -4.342  17.816  0.00  0.00    +0.000 N 
ATOM     11  C   UNL     1     -11.216  -3.676  17.006  0.00  0.00    +0.000 C 
ATOM     12  O   UNL     1     -12.355  -4.066  16.770  0.00  0.00    +0.000 OA
ATOM     13  H   UNL     1     -13.188  -2.319  15.596  0.00  0.00    +0.000 HD
ATOM     14  H   UNL     1     -11.621  -0.148  14.164  0.00  0.00    +0.000 HD
ATOM     15  H   UNL     1     -12.791  -1.234  13.428  0.00  0.00    +0.000 HD
ATOM     16  H   UNL     1      -9.307  -1.382  15.153  0.00  0.00    +0.000 HD
ATOM     17  H   UNL     1      -9.258  -3.126  15.058  0.00  0.00    +0.000 HD
ATOM     18  H   UNL     1     -11.214  -0.242  16.725  0.00  0.00    +0.000 HD
ATOM     19  H   UNL     1     -12.183  -1.337  17.695  0.00  0.00    +0.000 HD
ATOM     20  H   UNL     1      -9.080  -1.429  17.905  0.00  0.00    +0.000 HD
ENDROOT
BRANCH   1  21
ATOM     21  C   UNL     1     -13.865  -0.360  15.808  0.00  0.00    +0.000 C 
ATOM     22  H   UNL     1     -14.047  -0.220  16.879  0.00  0.00    +0.000 HD
ATOM     23  H   UNL     1     -14.790  -0.706  15.336  0.00  0.00    +0.000 HD
ATOM     24  H   UNL     1     -13.608   0.620  15.391  0.00  0.00    +0.000 HD
ENDBRANCH   1  21
BRANCH   3  25
ATOM     25  C   UNL     1     -11.499  -3.592  13.643  0.00  0.00    +0.000 C 
ATOM     26  H   UNL     1     -10.808  -4.389  13.943  0.00  0.00    +0.000 HD
ATOM     27  H   UNL     1     -11.695  -3.737  12.581  0.00  0.00    +0.000 HD
ATOM     28  H   UNL     1     -12.438  -3.759  14.182  0.00  0.00    +0.000 HD
ENDBRANCH   3  25
BRANCH   3  29
ATOM     29  C   UNL     1     -10.126  -1.762  12.709  0.00  0.00    +0.000 C 
ATOM     30  H   UNL     1      -9.056  -1.667  12.929  0.00  0.00    +0.000 HD
ATOM     31  H   UNL     1     -10.475  -0.792  12.340  0.00  0.00    +0.000 HD
ATOM     32  H   UNL     1     -10.228  -2.488  11.895  0.00  0.00    +0.000 HD
ENDBRANCH   3  29
BRANCH  10  33
ATOM     33  C   UNL     1     -10.688  -5.591  18.453  0.00  0.00    +0.000 C 
ATOM     34  H   UNL     1     -11.734  -5.847  18.236  0.00  0.00    +0.000 HD
ATOM     35  H   UNL     1     -10.585  -5.514  19.540  0.00  0.00    +0.000 HD
BRANCH  33  36
ATOM     36  C   UNL     1      -9.845  -6.725  17.893  0.00  0.00    +0.000 C 
ATOM     37  O   UNL     1      -8.653  -6.527  17.666  0.00  0.00    +0.000 OA
ATOM     38  N   UNL     1     -10.516  -7.933  17.694  0.00  0.00    +0.000 N 
ATOM     39  H   UNL     1     -11.526  -7.933  17.771  0.00  0.00    +0.000 HD
BRANCH  38  40
ATOM     40  C   UNL     1      -9.899  -9.105  17.190  0.00  0.00    +0.000 A 
ATOM     41  C   UNL     1     -10.006  -9.471  15.845  0.00  0.00    +0.000 A 
ATOM     42  C   UNL     1      -9.526 -10.693  15.383  0.00  0.00    +0.000 A 
ATOM     43  C   UNL     1      -8.883 -11.578  16.250  0.00  0.00    +0.000 A 
ATOM     44  C   UNL     1      -8.694 -11.181  17.584  0.00  0.00    +0.000 A 
ATOM     45  C   UNL     1      -9.186  -9.950  18.052  0.00  0.00    +0.000 A 
ATOM     46  H   UNL     1     -10.470  -8.816  15.114  0.00  0.00    +0.000 HD
ATOM     47  H   UNL     1      -9.685 -10.950  14.337  0.00  0.00    +0.000 HD
ATOM     48  H   UNL     1      -8.179 -11.852  18.275  0.00  0.00    +0.000 HD
ATOM     49  H   UNL     1      -9.046  -9.696  19.098  0.00  0.00    +0.000 HD
BRANCH  43  50
ATOM     50  C   UNL     1      -8.423 -12.923  15.744  0.00  0.00    +0.000 C 
ATOM     51  F   UNL     1      -9.149 -13.384  14.685  0.00  0.00    +0.000 F 
ATOM     52  F   UNL     1      -7.127 -12.910  15.326  0.00  0.00    +0.000 F 
ATOM     53  F   UNL     1      -8.503 -13.895  16.695  0.00  0.00    +0.000 F 
ENDBRANCH  43  50
ENDBRANCH  38  40
ENDBRANCH  33  36
ENDBRANCH  10  33
TORSDOF 7
ENDMDL
MODEL 4
REMARK VINA RESULT:   -10.245      5.342      6.641
REMARK INTER + INTRA:         -13.464
REMARK INTER:                 -12.827
REMARK INTRA:                  -0.638
REMARK UNBOUND:                 0.075
REMARK  Name = 
REMARK  7 active torsions:
REMARK  status: ('A' for Active; 'I' for Inactive)
REMARK    1  A    between atoms: C_1  and  C_2
REMARK    2  A    between atoms: C_4  and  C_5
REMARK    3  A    between atoms: C_4  and  C_6
REMARK    4  A    between atoms: N_13  and  C_14
REMARK    5  A    between atoms: C_14  and  C_15
REMARK    6  A    between atoms: N_17  and  C_18
REMARK    7  A    between atoms: C_21  and  C_22
REMARK                            x       y       z     vdW  Elec       q    Type
REMARK                         _______ _______ _______ _____ _____    ______ ____
ROOT
ATOM      1  C   UNL     1      -9.889   0.664  22.974  0.00  0.00    +0.000 C 
ATOM      2  C   UNL     1      -9.600   0.014  24.333  0.00  0.00    +0.000 C 
ATOM      3  C   UNL     1      -9.307  -1.507  24.230  0.00  0.00    +0.000 C 
ATOM      4  C   UNL     1     -10.388  -2.221  23.367  0.00  0.00    +0.000 C 
ATOM      5  C   UNL     1     -10.791  -1.511  22.056  0.00  0.00    +0.000 C 
ATOM      6  C   UNL     1     -11.081  -0.026  22.284  0.00  0.00    +0.000 C 
ATOM      7  N   UNL     1     -11.898  -2.219  21.428  0.00  0.00    +0.000 N 
ATOM      8  C   UNL     1     -11.553  -2.797  20.225  0.00  0.00    +0.000 C 
ATOM      9  O   UNL     1     -12.336  -3.270  19.423  0.00  0.00    +0.000 OA
ATOM     10  N   UNL     1     -10.213  -2.629  20.030  0.00  0.00    +0.000 N 
ATOM     11  C   UNL     1      -9.799  -1.646  20.878  0.00  0.00    +0.000 C 
ATOM     12  O   UNL     1      -8.845  -0.910  20.647  0.00  0.00    +0.000 OA
ATOM     13  H   UNL     1      -8.989   0.557  22.365  0.00  0.00    +0.000 HD
ATOM     14  H   UNL     1     -10.465   0.177  24.991  0.00  0.00    +0.000 HD
ATOM     15  H   UNL     1      -8.750   0.519  24.810  0.00  0.00    +0.000 HD
ATOM     16  H   UNL     1     -11.299  -2.302  23.986  0.00  0.00    +0.000 HD
ATOM     17  H   UNL     1     -10.084  -3.256  23.170  0.00  0.00    +0.000 HD
ATOM     18  H   UNL     1     -11.988   0.093  22.893  0.00  0.00    +0.000 HD
ATOM     19  H   UNL     1     -11.290   0.466  21.325  0.00  0.00    +0.000 HD
ATOM     20  H   UNL     1     -12.869  -2.187  21.717  0.00  0.00    +0.000 HD
ENDROOT
BRANCH   1  21
ATOM     21  C   UNL     1     -10.106   2.168  23.070  0.00  0.00    +0.000 C 
ATOM     22  H   UNL     1      -9.150   2.697  22.984  0.00  0.00    +0.000 HD
ATOM     23  H   UNL     1     -10.582   2.454  24.012  0.00  0.00    +0.000 HD
ATOM     24  H   UNL     1     -10.741   2.507  22.244  0.00  0.00    +0.000 HD
ENDBRANCH   1  21
BRANCH   3  25
ATOM     25  C   UNL     1      -7.896  -1.768  23.663  0.00  0.00    +0.000 C 
ATOM     26  H   UNL     1      -7.461  -2.678  24.095  0.00  0.00    +0.000 HD
ATOM     27  H   UNL     1      -7.195  -0.961  23.873  0.00  0.00    +0.000 HD
ATOM     28  H   UNL     1      -7.928  -1.909  22.578  0.00  0.00    +0.000 HD
ENDBRANCH   3  25
BRANCH   3  29
ATOM     29  C   UNL     1      -9.314  -2.099  25.660  0.00  0.00    +0.000 C 
ATOM     30  H   UNL     1      -9.979  -2.969  25.723  0.00  0.00    +0.000 HD
ATOM     31  H   UNL     1      -9.661  -1.364  26.394  0.00  0.00    +0.000 HD
ATOM     32  H   UNL     1      -8.315  -2.432  25.963  0.00  0.00    +0.000 HD
ENDBRANCH   3  29
BRANCH  10  33
ATOM     33  C   UNL     1      -9.538  -2.908  18.785  0.00  0.00    +0.000 C 
ATOM     34  H   UNL     1      -8.680  -2.233  18.666  0.00  0.00    +0.000 HD
ATOM     35  H   UNL     1     -10.208  -2.744  17.936  0.00  0.00    +0.000 HD
BRANCH  33  36
ATOM     36  C   UNL     1      -8.975  -4.319  18.787  0.00  0.00    +0.000 C 
ATOM     37  O   UNL     1      -7.912  -4.538  19.365  0.00  0.00    +0.000 OA
ATOM     38  N   UNL     1      -9.746  -5.277  18.124  0.00  0.00    +0.000 N 
ATOM     39  H   UNL     1     -10.520  -4.951  17.557  0.00  0.00    +0.000 HD
BRANCH  38  40
ATOM     40  C   UNL     1      -9.394  -6.645  18.025  0.00  0.00    +0.000 A 
ATOM     41  C   UNL     1      -9.085  -7.237  16.797  0.00  0.00    +0.000 A 
ATOM     42  C   UNL     1      -8.882  -8.610  16.681  0.00  0.00    +0.000 A 
ATOM     43  C   UNL     1      -8.944  -9.435  17.805  0.00  0.00    +0.000 A 
ATOM     44  C   UNL     1      -9.167  -8.836  19.056  0.00  0.00    +0.000 A 
ATOM     45  C   UNL     1      -9.379  -7.452  19.172  0.00  0.00    +0.000 A 
ATOM     46  H   UNL     1      -8.995  -6.648  15.890  0.00  0.00    +0.000 HD
ATOM     47  H   UNL     1      -8.700  -9.025  15.692  0.00  0.00    +0.000 HD
ATOM     48  H   UNL     1      -9.203  -9.462  19.952  0.00  0.00    +0.000 HD
ATOM     49  H   UNL     1      -9.580  -7.034  20.154  0.00  0.00    +0.000 HD
BRANCH  43  50
ATOM     50  C   UNL     1      -8.781 -10.927  17.651  0.00  0.00    +0.000 C 
ATOM     51  F   UNL     1      -8.191 -11.291  16.477  0.00  0.00    +0.000 F 
ATOM     52  F   UNL     1      -8.016 -11.475  18.635  0.00  0.00    +0.000 F 
ATOM     53  F   UNL     1      -9.971 -11.589  17.686  0.00  0.00    +0.000 F 
ENDBRANCH  43  50
ENDBRANCH  38  40
ENDBRANCH  33  36
ENDBRANCH  10  33
TORSDOF 7
ENDMDL
MODEL 5
REMARK VINA RESULT:   -10.159      2.305      3.728
REMARK INTER + INTRA:         -13.351
REMARK INTER:                 -13.074
REMARK INTRA:                  -0.277
REMARK UNBOUND:                 0.075
REMARK  Name = 
REMARK  7 active torsions:
REMARK  status: ('A' for Active; 'I' for Inactive)
REMARK    1  A    between atoms: C_1  and  C_2
REMARK    2  A    between atoms: C_4  and  C_5
REMARK    3  A    between atoms: C_4  and  C_6
REMARK    4  A    between atoms: N_13  and  C_14
REMARK    5  A    between atoms: C_14  and  C_15
REMARK    6  A    between atoms: N_17  and  C_18
REMARK    7  A    between atoms: C_21  and  C_22
REMARK                            x       y       z     vdW  Elec       q    Type
REMARK                         _______ _______ _______ _____ _____    ______ ____
ROOT
ATOM      1  C   UNL     1     -11.431  -4.357  17.271  0.00  0.00    +0.000 C 
ATOM      2  C   UNL     1     -11.073  -4.449  15.782  0.00  0.00    +0.000 C 
ATOM      3  C   UNL     1     -10.050  -5.574  15.471  0.00  0.00    +0.000 C 
ATOM      4  C   UNL     1      -8.837  -5.502  16.443  0.00  0.00    +0.000 C 
ATOM      5  C   UNL     1      -9.172  -5.275  17.933  0.00  0.00    +0.000 C 
ATOM      6  C   UNL     1     -10.167  -4.128  18.120  0.00  0.00    +0.000 C 
ATOM      7  N   UNL     1      -7.944  -5.095  18.697  0.00  0.00    +0.000 N 
ATOM      8  C   UNL     1      -7.714  -6.116  19.594  0.00  0.00    +0.000 C 
ATOM      9  O   UNL     1      -6.873  -6.104  20.472  0.00  0.00    +0.000 OA
ATOM     10  N   UNL     1      -8.669  -7.075  19.415  0.00  0.00    +0.000 N 
ATOM     11  C   UNL     1      -9.688  -6.508  18.710  0.00  0.00    +0.000 C 
ATOM     12  O   UNL     1     -10.857  -6.871  18.799  0.00  0.00    +0.000 OA
ATOM     13  H   UNL     1     -11.905  -5.301  17.550  0.00  0.00    +0.000 HD
ATOM     14  H   UNL     1     -10.665  -3.482  15.459  0.00  0.00    +0.000 HD
ATOM     15  H   UNL     1     -11.986  -4.611  15.193  0.00  0.00    +0.000 HD
ATOM     16  H   UNL     1      -8.207  -4.655  16.119  0.00  0.00    +0.000 HD
ATOM     17  H   UNL     1      -8.206  -6.391  16.319  0.00  0.00    +0.000 HD
ATOM     18  H   UNL     1      -9.698  -3.172  17.846  0.00  0.00    +0.000 HD
ATOM     19  H   UNL     1     -10.442  -4.040  19.179  0.00  0.00    +0.000 HD
ATOM     20  H   UNL     1      -7.372  -4.259  18.721  0.00  0.00    +0.000 HD
ENDROOT
BRANCH   1  21
ATOM     21  C   UNL     1     -12.488  -3.301  17.563  0.00  0.00    +0.000 C 
ATOM     22  H   UNL     1     -12.948  -3.481  18.540  0.00  0.00    +0.000 HD
ATOM     23  H   UNL     1     -13.274  -3.287  16.802  0.00  0.00    +0.000 HD
ATOM     24  H   UNL     1     -12.024  -2.309  17.600  0.00  0.00    +0.000 HD
ENDBRANCH   1  21
BRANCH   3  25
ATOM     25  C   UNL     1     -10.713  -6.966  15.527  0.00  0.00    +0.000 C 
ATOM     26  H   UNL     1     -10.418  -7.577  14.666  0.00  0.00    +0.000 HD
ATOM     27  H   UNL     1     -11.802  -6.922  15.515  0.00  0.00    +0.000 HD
ATOM     28  H   UNL     1     -10.410  -7.510  16.428  0.00  0.00    +0.000 HD
ENDBRANCH   3  25
BRANCH   3  29
ATOM     29  C   UNL     1      -9.557  -5.390  14.015  0.00  0.00    +0.000 C 
ATOM     30  H   UNL     1     -10.354  -4.986  13.378  0.00  0.00    +0.000 HD
ATOM     31  H   UNL     1      -9.238  -6.343  13.579  0.00  0.00    +0.000 HD
ATOM     32  H   UNL     1      -8.712  -4.695  13.959  0.00  0.00    +0.000 HD
ENDBRANCH   3  29
BRANCH  10  33
ATOM     33  C   UNL     1      -8.879  -8.182  20.317  0.00  0.00    +0.000 C 
ATOM     34  H   UNL     1      -9.939  -8.242  20.595  0.00  0.00    +0.000 HD
ATOM     35  H   UNL     1      -8.302  -8.047  21.237  0.00  0.00    +0.000 HD
BRANCH  33  36
ATOM     36  C   UNL     1      -8.540  -9.498  19.636  0.00  0.00    +0.000 C 
ATOM     37  O   UNL     1      -7.873 -10.332  20.246  0.00  0.00    +0.000 OA
ATOM     38  N   UNL     1      -9.044  -9.656  18.343  0.00  0.00    +0.000 N 
ATOM     39  H   UNL     1      -9.447  -8.844  17.890  0.00  0.00    +0.000 HD
BRANCH  38  40
ATOM     40  C   UNL     1      -8.844 -10.814  17.553  0.00  0.00    +0.000 A 
ATOM     41  C   UNL     1      -8.848 -10.759  16.155  0.00  0.00    +0.000 A 
ATOM     42  C   UNL     1      -8.797 -11.915  15.381  0.00  0.00    +0.000 A 
ATOM     43  C   UNL     1      -8.700 -13.170  15.984  0.00  0.00    +0.000 A 
ATOM     44  C   UNL     1      -8.607 -13.229  17.384  0.00  0.00    +0.000 A 
ATOM     45  C   UNL     1      -8.666 -12.062  18.166  0.00  0.00    +0.000 A 
ATOM     46  H   UNL     1      -8.894  -9.813  15.626  0.00  0.00    +0.000 HD
ATOM     47  H   UNL     1      -8.860 -11.817  14.299  0.00  0.00    +0.000 HD
ATOM     48  H   UNL     1      -8.514 -14.200  17.876  0.00  0.00    +0.000 HD
ATOM     49  H   UNL     1      -8.622 -12.155  19.247  0.00  0.00    +0.000 HD
BRANCH  43  50
ATOM     50  C   UNL     1      -8.707 -14.415  15.131  0.00  0.00    +0.000 C 
ATOM     51  F   UNL     1      -9.960 -14.858  14.825  0.00  0.00    +0.000 F 
ATOM     52  F   UNL     1      -8.076 -14.236  13.938  0.00  0.00    +0.000 F 
ATOM     53  F   UNL     1      -8.083 -15.465  15.734  0.00  0.00    +0.000 F 
ENDBRANCH  43  50
ENDBRANCH  38  40
ENDBRANCH  33  36
ENDBRANCH  10  33
TORSDOF 7
ENDMDL
MODEL 6
REMARK VINA RESULT:    -9.887      5.770      6.883
REMARK INTER + INTRA:         -12.991
REMARK INTER:                 -12.837
REMARK INTRA:                  -0.154
REMARK UNBOUND:                 0.075
REMARK  Name = 
REMARK  7 active torsions:
REMARK  status: ('A' for Active; 'I' for Inactive)
REMARK    1  A    between atoms: C_1  and  C_2
REMARK    2  A    between atoms: C_4  and  C_5
REMARK    3  A    between atoms: C_4  and  C_6
REMARK    4  A    between atoms: N_13  and  C_14
REMARK    5  A    between atoms: C_14  and  C_15
REMARK    6  A    between atoms: N_17  and  C_18
REMARK    7  A    between atoms: C_21  and  C_22
REMARK                            x       y       z     vdW  Elec       q    Type
REMARK                         _______ _______ _______ _____ _____    ______ ____
ROOT
ATOM      1  C   UNL     1      -8.464  -0.423  23.833  0.00  0.00    +0.000 C 
ATOM      2  C   UNL     1      -9.529  -0.950  24.803  0.00  0.00    +0.000 C 
ATOM      3  C   UNL     1      -9.813  -2.466  24.630  0.00  0.00    +0.000 C 
ATOM      4  C   UNL     1     -10.045  -2.817  23.132  0.00  0.00    +0.000 C 
ATOM      5  C   UNL     1      -9.061  -2.186  22.124  0.00  0.00    +0.000 C 
ATOM      6  C   UNL     1      -8.880  -0.687  22.374  0.00  0.00    +0.000 C 
ATOM      7  N   UNL     1      -9.480  -2.491  20.762  0.00  0.00    +0.000 N 
ATOM      8  C   UNL     1      -8.592  -3.309  20.097  0.00  0.00    +0.000 C 
ATOM      9  O   UNL     1      -8.614  -3.547  18.905  0.00  0.00    +0.000 OA
ATOM     10  N   UNL     1      -7.617  -3.695  20.972  0.00  0.00    +0.000 N 
ATOM     11  C   UNL     1      -7.664  -2.844  22.034  0.00  0.00    +0.000 C 
ATOM     12  O   UNL     1      -6.688  -2.567  22.724  0.00  0.00    +0.000 OA
ATOM     13  H   UNL     1      -7.532  -0.946  24.058  0.00  0.00    +0.000 HD
ATOM     14  H   UNL     1     -10.457  -0.383  24.647  0.00  0.00    +0.000 HD
ATOM     15  H   UNL     1      -9.216  -0.751  25.837  0.00  0.00    +0.000 HD
ATOM     16  H   UNL     1     -11.056  -2.461  22.866  0.00  0.00    +0.000 HD
ATOM     17  H   UNL     1     -10.084  -3.907  23.007  0.00  0.00    +0.000 HD
ATOM     18  H   UNL     1      -9.812  -0.151  22.145  0.00  0.00    +0.000 HD
ATOM     19  H   UNL     1      -8.120  -0.283  21.693  0.00  0.00    +0.000 HD
ATOM     20  H   UNL     1     -10.242  -2.052  20.259  0.00  0.00    +0.000 HD
ENDROOT
BRANCH   1  21
ATOM     21  C   UNL     1      -8.137   1.048  24.053  0.00  0.00    +0.000 C 
ATOM     22  H   UNL     1      -7.395   1.158  24.852  0.00  0.00    +0.000 HD
ATOM     23  H   UNL     1      -9.025   1.630  24.315  0.00  0.00    +0.000 HD
ATOM     24  H   UNL     1      -7.700   1.473  23.143  0.00  0.00    +0.000 HD
ENDBRANCH   1  21
BRANCH   3  25
ATOM     25  C   UNL     1      -8.671  -3.320  25.221  0.00  0.00    +0.000 C 
ATOM     26  H   UNL     1      -7.781  -3.281  24.582  0.00  0.00    +0.000 HD
ATOM     27  H   UNL     1      -8.933  -4.373  25.322  0.00  0.00    +0.000 HD
ATOM     28  H   UNL     1      -8.376  -2.952  26.209  0.00  0.00    +0.000 HD
ENDBRANCH   3  25
BRANCH   3  29
ATOM     29  C   UNL     1     -11.080  -2.817  25.447  0.00  0.00    +0.000 C 
ATOM     30  H   UNL     1     -11.382  -1.978  26.085  0.00  0.00    +0.000 HD
ATOM     31  H   UNL     1     -10.908  -3.681  26.097  0.00  0.00    +0.000 HD
ATOM     32  H   UNL     1     -11.929  -3.050  24.794  0.00  0.00    +0.000 HD
ENDBRANCH   3  29
BRANCH  10  33
ATOM     33  C   UNL     1      -6.405  -4.372  20.579  0.00  0.00    +0.000 C 
ATOM     34  H   UNL     1      -5.883  -4.750  21.468  0.00  0.00    +0.000 HD
ATOM     35  H   UNL     1      -5.726  -3.684  20.065  0.00  0.00    +0.000 HD
BRANCH  33  36
ATOM     36  C   UNL     1      -6.723  -5.586  19.722  0.00  0.00    +0.000 C 
ATOM     37  O   UNL     1      -5.977  -5.868  18.786  0.00  0.00    +0.000 OA
ATOM     38  N   UNL     1      -7.861  -6.304  20.092  0.00  0.00    +0.000 N 
ATOM     39  H   UNL     1      -8.479  -5.891  20.781  0.00  0.00    +0.000 HD
BRANCH  38  40
ATOM     40  C   UNL     1      -8.314  -7.468  19.423  0.00  0.00    +0.000 A 
ATOM     41  C   UNL     1      -8.281  -8.726  20.034  0.00  0.00    +0.000 A 
ATOM     42  C   UNL     1      -8.587  -9.885  19.327  0.00  0.00    +0.000 A 
ATOM     43  C   UNL     1      -8.979  -9.820  17.989  0.00  0.00    +0.000 A 
ATOM     44  C   UNL     1      -9.100  -8.554  17.394  0.00  0.00    +0.000 A 
ATOM     45  C   UNL     1      -8.783  -7.383  18.105  0.00  0.00    +0.000 A 
ATOM     46  H   UNL     1      -8.011  -8.842  21.078  0.00  0.00    +0.000 HD
ATOM     47  H   UNL     1      -8.491 -10.842  19.836  0.00  0.00    +0.000 HD
ATOM     48  H   UNL     1      -9.421  -8.479  16.352  0.00  0.00    +0.000 HD
ATOM     49  H   UNL     1      -8.860  -6.426  17.597  0.00  0.00    +0.000 HD
BRANCH  43  50
ATOM     50  C   UNL     1      -9.249 -11.092  17.223  0.00  0.00    +0.000 C 
ATOM     51  F   UNL     1      -8.248 -11.432  16.362  0.00  0.00    +0.000 F 
ATOM     52  F   UNL     1      -9.417 -12.169  18.039  0.00  0.00    +0.000 F 
ATOM     53  F   UNL     1     -10.377 -11.015  16.463  0.00  0.00    +0.000 F 
ENDBRANCH  43  50
ENDBRANCH  38  40
ENDBRANCH  33  36
ENDBRANCH  10  33
TORSDOF 7
ENDMDL
MODEL 7
REMARK VINA RESULT:    -9.757      1.895      2.954
REMARK INTER + INTRA:         -12.820
REMARK INTER:                 -12.349
REMARK INTRA:                  -0.471
REMARK UNBOUND:                 0.075
REMARK  Name = 
REMARK  7 active torsions:
REMARK  status: ('A' for Active; 'I' for Inactive)
REMARK    1  A    between atoms: C_1  and  C_2
REMARK    2  A    between atoms: C_4  and  C_5
REMARK    3  A    between atoms: C_4  and  C_6
REMARK    4  A    between atoms: N_13  and  C_14
REMARK    5  A    between atoms: C_14  and  C_15
REMARK    6  A    between atoms: N_17  and  C_18
REMARK    7  A    between atoms: C_21  and  C_22
REMARK                            x       y       z     vdW  Elec       q    Type
REMARK                         _______ _______ _______ _____ _____    ______ ____
ROOT
ATOM      1  C   UNL     1      -9.296  -0.552  16.126  0.00  0.00    +0.000 C 
ATOM      2  C   UNL     1     -10.397   0.510  16.234  0.00  0.00    +0.000 C 
ATOM      3  C   UNL     1     -11.673  -0.007  16.952  0.00  0.00    +0.000 C 
ATOM      4  C   UNL     1     -12.123  -1.374  16.360  0.00  0.00    +0.000 C 
ATOM      5  C   UNL     1     -11.006  -2.412  16.118  0.00  0.00    +0.000 C 
ATOM      6  C   UNL     1      -9.813  -1.797  15.382  0.00  0.00    +0.000 C 
ATOM      7  N   UNL     1     -11.552  -3.582  15.441  0.00  0.00    +0.000 N 
ATOM      8  C   UNL     1     -11.518  -4.718  16.220  0.00  0.00    +0.000 C 
ATOM      9  O   UNL     1     -11.731  -5.848  15.825  0.00  0.00    +0.000 OA
ATOM     10  N   UNL     1     -11.078  -4.377  17.467  0.00  0.00    +0.000 N 
ATOM     11  C   UNL     1     -10.484  -3.155  17.369  0.00  0.00    +0.000 C 
ATOM     12  O   UNL     1      -9.580  -2.780  18.109  0.00  0.00    +0.000 OA
ATOM     13  H   UNL     1      -9.000  -0.818  17.143  0.00  0.00    +0.000 HD
ATOM     14  H   UNL     1     -10.658   0.850  15.223  0.00  0.00    +0.000 HD
ATOM     15  H   UNL     1     -10.010   1.390  16.766  0.00  0.00    +0.000 HD
ATOM     16  H   UNL     1     -12.593  -1.169  15.383  0.00  0.00    +0.000 HD
ATOM     17  H   UNL     1     -12.922  -1.803  16.978  0.00  0.00    +0.000 HD
ATOM     18  H   UNL     1     -10.100  -1.530  14.355  0.00  0.00    +0.000 HD
ATOM     19  H   UNL     1      -9.007  -2.536  15.291  0.00  0.00    +0.000 HD
ATOM     20  H   UNL     1     -11.793  -3.646  14.459  0.00  0.00    +0.000 HD
ENDROOT
BRANCH   1  21
ATOM     21  C   UNL     1      -8.020  -0.020  15.486  0.00  0.00    +0.000 C 
ATOM     22  H   UNL     1      -7.409   0.502  16.230  0.00  0.00    +0.000 HD
ATOM     23  H   UNL     1      -8.232   0.666  14.661  0.00  0.00    +0.000 HD
ATOM     24  H   UNL     1      -7.421  -0.853  15.100  0.00  0.00    +0.000 HD
ENDBRANCH   1  21
BRANCH   3  25
ATOM     25  C   UNL     1     -11.453  -0.117  18.475  0.00  0.00    +0.000 C 
ATOM     26  H   UNL     1     -12.184   0.491  19.022  0.00  0.00    +0.000 HD
ATOM     27  H   UNL     1     -10.468   0.225  18.790  0.00  0.00    +0.000 HD
ATOM     28  H   UNL     1     -11.573  -1.151  18.816  0.00  0.00    +0.000 HD
ENDBRANCH   3  25
BRANCH   3  29
ATOM     29  C   UNL     1     -12.798   1.038  16.753  0.00  0.00    +0.000 C 
ATOM     30  H   UNL     1     -12.917   1.290  15.692  0.00  0.00    +0.000 HD
ATOM     31  H   UNL     1     -12.578   1.966  17.290  0.00  0.00    +0.000 HD
ATOM     32  H   UNL     1     -13.764   0.663  17.108  0.00  0.00    +0.000 HD
ENDBRANCH   3  29
BRANCH  10  33
ATOM     33  C   UNL     1     -10.707  -5.335  18.481  0.00  0.00    +0.000 C 
ATOM     34  H   UNL     1     -11.608  -5.796  18.908  0.00  0.00    +0.000 HD
ATOM     35  H   UNL     1     -10.167  -4.846  19.297  0.00  0.00    +0.000 HD
BRANCH  33  36
ATOM     36  C   UNL     1      -9.895  -6.468  17.875  0.00  0.00    +0.000 C 
ATOM     37  O   UNL     1      -8.747  -6.242  17.494  0.00  0.00    +0.000 OA
ATOM     38  N   UNL     1     -10.536  -7.707  17.816  0.00  0.00    +0.000 N 
ATOM     39  H   UNL     1     -11.529  -7.736  18.017  0.00  0.00    +0.000 HD
BRANCH  38  40
ATOM     40  C   UNL     1      -9.940  -8.881  17.296  0.00  0.00    +0.000 A 
ATOM     41  C   UNL     1     -10.083  -9.244  15.953  0.00  0.00    +0.000 A 
ATOM     42  C   UNL     1      -9.622 -10.469  15.477  0.00  0.00    +0.000 A 
ATOM     43  C   UNL     1      -8.963 -11.359  16.327  0.00  0.00    +0.000 A 
ATOM     44  C   UNL     1      -8.738 -10.965  17.656  0.00  0.00    +0.000 A 
ATOM     45  C   UNL     1      -9.210  -9.732  18.138  0.00  0.00    +0.000 A 
ATOM     46  H   UNL     1     -10.561  -8.586  15.235  0.00  0.00    +0.000 HD
ATOM     47  H   UNL     1      -9.809 -10.724  14.436  0.00  0.00    +0.000 HD
ATOM     48  H   UNL     1      -8.210 -11.640  18.334  0.00  0.00    +0.000 HD
ATOM     49  H   UNL     1      -9.042  -9.480  19.181  0.00  0.00    +0.000 HD
BRANCH  43  50
ATOM     50  C   UNL     1      -8.524 -12.706  15.808  0.00  0.00    +0.000 C 
ATOM     51  F   UNL     1      -9.261 -13.148  14.749  0.00  0.00    +0.000 F 
ATOM     52  F   UNL     1      -7.230 -12.708  15.384  0.00  0.00    +0.000 F 
ATOM     53  F   UNL     1      -8.613 -13.685  16.751  0.00  0.00    +0.000 F 
ENDBRANCH  43  50
ENDBRANCH  38  40
ENDBRANCH  33  36
ENDBRANCH  10  33
TORSDOF 7
ENDMDL
MODEL 8
REMARK VINA RESULT:    -9.720      1.851      3.055
REMARK INTER + INTRA:         -12.770
REMARK INTER:                 -12.743
REMARK INTRA:                  -0.027
REMARK UNBOUND:                 0.075
REMARK  Name = 
REMARK  7 active torsions:
REMARK  status: ('A' for Active; 'I' for Inactive)
REMARK    1  A    between atoms: C_1  and  C_2
REMARK    2  A    between atoms: C_4  and  C_5
REMARK    3  A    between atoms: C_4  and  C_6
REMARK    4  A    between atoms: N_13  and  C_14
REMARK    5  A    between atoms: C_14  and  C_15
REMARK    6  A    between atoms: N_17  and  C_18
REMARK    7  A    between atoms: C_21  and  C_22
REMARK                            x       y       z     vdW  Elec       q    Type
REMARK                         _______ _______ _______ _____ _____    ______ ____
ROOT
ATOM      1  C   UNL     1      -9.802  -1.125  13.485  0.00  0.00    +0.000 C 
ATOM      2  C   UNL     1     -11.043  -0.993  12.592  0.00  0.00    +0.000 C 
ATOM      3  C   UNL     1     -12.119  -2.073  12.882  0.00  0.00    +0.000 C 
ATOM      4  C   UNL     1     -11.481  -3.491  12.928  0.00  0.00    +0.000 C 
ATOM      5  C   UNL     1     -10.157  -3.617  13.713  0.00  0.00    +0.000 C 
ATOM      6  C   UNL     1      -9.165  -2.518  13.326  0.00  0.00    +0.000 C 
ATOM      7  N   UNL     1      -9.612  -4.959  13.557  0.00  0.00    +0.000 N 
ATOM      8  C   UNL     1      -9.601  -5.675  14.734  0.00  0.00    +0.000 C 
ATOM      9  O   UNL     1      -9.026  -6.733  14.908  0.00  0.00    +0.000 OA
ATOM     10  N   UNL     1     -10.227  -4.938  15.698  0.00  0.00    +0.000 N 
ATOM     11  C   UNL     1     -10.280  -3.651  15.254  0.00  0.00    +0.000 C 
ATOM     12  O   UNL     1     -10.297  -2.677  16.001  0.00  0.00    +0.000 OA
ATOM     13  H   UNL     1     -10.128  -0.977  14.517  0.00  0.00    +0.000 HD
ATOM     14  H   UNL     1     -10.728  -1.062  11.542  0.00  0.00    +0.000 HD
ATOM     15  H   UNL     1     -11.482   0.005  12.717  0.00  0.00    +0.000 HD
ATOM     16  H   UNL     1     -11.271  -3.790  11.887  0.00  0.00    +0.000 HD
ATOM     17  H   UNL     1     -12.217  -4.220  13.291  0.00  0.00    +0.000 HD
ATOM     18  H   UNL     1      -8.827  -2.662  12.290  0.00  0.00    +0.000 HD
ATOM     19  H   UNL     1      -8.266  -2.588  13.952  0.00  0.00    +0.000 HD
ATOM     20  H   UNL     1      -9.135  -5.319  12.739  0.00  0.00    +0.000 HD
ENDROOT
BRANCH   1  21
ATOM     21  C   UNL     1      -8.779  -0.023  13.247  0.00  0.00    +0.000 C 
ATOM     22  H   UNL     1      -8.850   0.739  14.031  0.00  0.00    +0.000 HD
ATOM     23  H   UNL     1      -8.917   0.460  12.275  0.00  0.00    +0.000 HD
ATOM     24  H   UNL     1      -7.766  -0.438  13.288  0.00  0.00    +0.000 HD
ENDBRANCH   1  21
BRANCH   3  25
ATOM     25  C   UNL     1     -12.875  -1.771  14.193  0.00  0.00    +0.000 C 
ATOM     26  H   UNL     1     -12.592  -0.790  14.593  0.00  0.00    +0.000 HD
ATOM     27  H   UNL     1     -12.672  -2.496  14.981  0.00  0.00    +0.000 HD
ATOM     28  H   UNL     1     -13.958  -1.752  14.028  0.00  0.00    +0.000 HD
ENDBRANCH   3  25
BRANCH   3  29
ATOM     29  C   UNL     1     -13.177  -2.018  11.753  0.00  0.00    +0.000 C 
ATOM     30  H   UNL     1     -13.982  -1.317  12.002  0.00  0.00    +0.000 HD
ATOM     31  H   UNL     1     -13.633  -2.999  11.587  0.00  0.00    +0.000 HD
ATOM     32  H   UNL     1     -12.738  -1.686  10.805  0.00  0.00    +0.000 HD
ENDBRANCH   3  29
BRANCH  10  33
ATOM     33  C   UNL     1     -10.213  -5.269  17.102  0.00  0.00    +0.000 C 
ATOM     34  H   UNL     1     -11.065  -4.794  17.607  0.00  0.00    +0.000 HD
ATOM     35  H   UNL     1      -9.299  -4.900  17.579  0.00  0.00    +0.000 HD
BRANCH  33  36
ATOM     36  C   UNL     1     -10.378  -6.766  17.301  0.00  0.00    +0.000 C 
ATOM     37  O   UNL     1     -11.498  -7.263  17.192  0.00  0.00    +0.000 OA
ATOM     38  N   UNL     1      -9.206  -7.471  17.583  0.00  0.00    +0.000 N 
ATOM     39  H   UNL     1      -8.373  -6.936  17.798  0.00  0.00    +0.000 HD
BRANCH  38  40
ATOM     40  C   UNL     1      -9.156  -8.871  17.789  0.00  0.00    +0.000 A 
ATOM     41  C   UNL     1      -8.702  -9.421  18.993  0.00  0.00    +0.000 A 
ATOM     42  C   UNL     1      -8.515 -10.792  19.142  0.00  0.00    +0.000 A 
ATOM     43  C   UNL     1      -8.816 -11.668  18.098  0.00  0.00    +0.000 A 
ATOM     44  C   UNL     1      -9.354 -11.133  16.916  0.00  0.00    +0.000 A 
ATOM     45  C   UNL     1      -9.536  -9.747  16.763  0.00  0.00    +0.000 A 
ATOM     46  H   UNL     1      -8.477  -8.796  19.851  0.00  0.00    +0.000 HD
ATOM     47  H   UNL     1      -8.108 -11.160  20.081  0.00  0.00    +0.000 HD
ATOM     48  H   UNL     1      -9.612 -11.803  16.092  0.00  0.00    +0.000 HD
ATOM     49  H   UNL     1      -9.925  -9.373  15.820  0.00  0.00    +0.000 HD
BRANCH  43  50
ATOM     50  C   UNL     1      -8.550 -13.145  18.257  0.00  0.00    +0.000 C 
ATOM     51  F   UNL     1      -9.416 -13.764  19.109  0.00  0.00    +0.000 F 
ATOM     52  F   UNL     1      -8.641 -13.824  17.080  0.00  0.00    +0.000 F 
ATOM     53  F   UNL     1      -7.306 -13.403  18.746  0.00  0.00    +0.000 F 
ENDBRANCH  43  50
ENDBRANCH  38  40
ENDBRANCH  33  36
ENDBRANCH  10  33
TORSDOF 7
ENDMDL
MODEL 9
REMARK VINA RESULT:    -9.643      2.712      3.981
REMARK INTER + INTRA:         -12.669
REMARK INTER:                 -12.600
REMARK INTRA:                  -0.069
REMARK UNBOUND:                 0.075
REMARK  Name = 
REMARK  7 active torsions:
REMARK  status: ('A' for Active; 'I' for Inactive)
REMARK    1  A    between atoms: C_1  and  C_2
REMARK    2  A    between atoms: C_4  and  C_5
REMARK    3  A    between atoms: C_4  and  C_6
REMARK    4  A    between atoms: N_13  and  C_14
REMARK    5  A    between atoms: C_14  and  C_15
REMARK    6  A    between atoms: N_17  and  C_18
REMARK    7  A    between atoms: C_21  and  C_22
REMARK                            x       y       z     vdW  Elec       q    Type
REMARK                         _______ _______ _______ _____ _____    ______ ____
ROOT
ATOM      1  C   UNL     1     -11.444  -0.878  20.213  0.00  0.00    +0.000 C 
ATOM      2  C   UNL     1     -10.526   0.222  19.663  0.00  0.00    +0.000 C 
ATOM      3  C   UNL     1      -9.752  -0.212  18.389  0.00  0.00    +0.000 C 
ATOM      4  C   UNL     1      -9.078  -1.599  18.598  0.00  0.00    +0.000 C 
ATOM      5  C   UNL     1      -9.946  -2.683  19.274  0.00  0.00    +0.000 C 
ATOM      6  C   UNL     1     -10.638  -2.151  20.531  0.00  0.00    +0.000 C 
ATOM      7  N   UNL     1      -9.146  -3.875  19.524  0.00  0.00    +0.000 N 
ATOM      8  C   UNL     1      -9.553  -4.962  18.780  0.00  0.00    +0.000 C 
ATOM      9  O   UNL     1      -9.180  -6.107  18.947  0.00  0.00    +0.000 OA
ATOM     10  N   UNL     1     -10.535  -4.558  17.922  0.00  0.00    +0.000 N 
ATOM     11  C   UNL     1     -11.006  -3.363  18.377  0.00  0.00    +0.000 C 
ATOM     12  O   UNL     1     -12.153  -2.970  18.187  0.00  0.00    +0.000 OA
ATOM     13  H   UNL     1     -12.192  -1.090  19.446  0.00  0.00    +0.000 HD
ATOM     14  H   UNL     1      -9.812   0.506  20.447  0.00  0.00    +0.000 HD
ATOM     15  H   UNL     1     -11.118   1.120  19.444  0.00  0.00    +0.000 HD
ATOM     16  H   UNL     1      -8.196  -1.441  19.242  0.00  0.00    +0.000 HD
ATOM     17  H   UNL     1      -8.674  -1.964  17.645  0.00  0.00    +0.000 HD
ATOM     18  H   UNL     1      -9.892  -1.939  21.311  0.00  0.00    +0.000 HD
ATOM     19  H   UNL     1     -11.303  -2.919  20.945  0.00  0.00    +0.000 HD
ATOM     20  H   UNL     1      -8.463  -3.992  20.263  0.00  0.00    +0.000 HD
ENDROOT
BRANCH   1  21
ATOM     21  C   UNL     1     -12.255  -0.426  21.420  0.00  0.00    +0.000 C 
ATOM     22  H   UNL     1     -12.902   0.416  21.150  0.00  0.00    +0.000 HD
ATOM     23  H   UNL     1     -11.614  -0.125  22.253  0.00  0.00    +0.000 HD
ATOM     24  H   UNL     1     -12.905  -1.240  21.758  0.00  0.00    +0.000 HD
ENDBRANCH   1  21
BRANCH   3  25
ATOM     25  C   UNL     1     -10.676  -0.234  17.154  0.00  0.00    +0.000 C 
ATOM     26  H   UNL     1     -10.447   0.598  16.477  0.00  0.00    +0.000 HD
ATOM     27  H   UNL     1     -11.732  -0.144  17.407  0.00  0.00    +0.000 HD
ATOM     28  H   UNL     1     -10.548  -1.160  16.583  0.00  0.00    +0.000 HD
ENDBRANCH   3  25
BRANCH   3  29
ATOM     29  C   UNL     1      -8.667   0.852  18.097  0.00  0.00    +0.000 C 
ATOM     30  H   UNL     1      -8.977   1.839  18.460  0.00  0.00    +0.000 HD
ATOM     31  H   UNL     1      -8.475   0.941  17.023  0.00  0.00    +0.000 HD
ATOM     32  H   UNL     1      -7.719   0.607  18.589  0.00  0.00    +0.000 HD
ENDBRANCH   3  29
BRANCH  10  33
ATOM     33  C   UNL     1     -11.350  -5.462  17.147  0.00  0.00    +0.000 C 
ATOM     34  H   UNL     1     -11.759  -4.940  16.272  0.00  0.00    +0.000 HD
ATOM     35  H   UNL     1     -12.194  -5.829  17.739  0.00  0.00    +0.000 HD
BRANCH  33  36
ATOM     36  C   UNL     1     -10.511  -6.608  16.606  0.00  0.00    +0.000 C 
ATOM     37  O   UNL     1      -9.638  -6.368  15.774  0.00  0.00    +0.000 OA
ATOM     38  N   UNL     1     -10.803  -7.869  17.129  0.00  0.00    +0.000 N 
ATOM     39  H   UNL     1     -11.641  -7.966  17.691  0.00  0.00    +0.000 HD
BRANCH  38  40
ATOM     40  C   UNL     1     -10.124  -9.056  16.758  0.00  0.00    +0.000 A 
ATOM     41  C   UNL     1     -10.169  -9.549  15.450  0.00  0.00    +0.000 A 
ATOM     42  C   UNL     1      -9.626 -10.788  15.121  0.00  0.00    +0.000 A 
ATOM     43  C   UNL     1      -8.980 -11.561  16.087  0.00  0.00    +0.000 A 
ATOM     44  C   UNL     1      -8.853 -11.033  17.383  0.00  0.00    +0.000 A 
ATOM     45  C   UNL     1      -9.409  -9.786  17.717  0.00  0.00    +0.000 A 
ATOM     46  H   UNL     1     -10.633  -8.985  14.647  0.00  0.00    +0.000 HD
ATOM     47  H   UNL     1      -9.739 -11.148  14.100  0.00  0.00    +0.000 HD
ATOM     48  H   UNL     1      -8.337 -11.614  18.151  0.00  0.00    +0.000 HD
ATOM     49  H   UNL     1      -9.315  -9.430  18.739  0.00  0.00    +0.000 HD
BRANCH  43  50
ATOM     50  C   UNL     1      -8.450 -12.926  15.725  0.00  0.00    +0.000 C 
ATOM     51  F   UNL     1      -8.497 -13.818  16.756  0.00  0.00    +0.000 F 
ATOM     52  F   UNL     1      -9.142 -13.503  14.705  0.00  0.00    +0.000 F 
ATOM     53  F   UNL     1      -7.148 -12.893  15.327  0.00  0.00    +0.000 F 
ENDBRANCH  43  50
ENDBRANCH  38  40
ENDBRANCH  33  36
ENDBRANCH  10  33
TORSDOF 7
ENDMDL
