REMARK  Name = 
REMARK  5 active torsions:
REMARK  status: ('A' for Active; 'I' for Inactive)
REMARK    1  A    between atoms: N_1  and  N_2
REMARK    2  A    between atoms: N_2  and  C_3
REMARK    3  A    between atoms: C_6  and  S_7
REMARK    4  A    between atoms: S_7  and  N_10
REMARK    5  A    between atoms: C_13  and  C_14
REMARK                            x       y       z     vdW  Elec       q    Type
REMARK                         _______ _______ _______ _____ _____    ______ ____
ROOT
ATOM      1  S   UNL     1       1.223  -0.467  -0.701  0.00  0.00    +0.000 S 
ATOM      2  O   UNL     1       2.617  -0.194  -0.418  0.00  0.00    +0.000 OA
ATOM      3  O   UNL     1       0.810  -0.987  -1.989  0.00  0.00    +0.000 OA
ENDROOT
BRANCH   1   7
ATOM      4  C   UNL     1       0.387  -4.063   2.011  0.00  0.00    +0.000 A 
ATOM      5  C   UNL     1      -0.449  -3.797   0.915  0.00  0.00    +0.000 A 
ATOM      6  C   UNL     1      -0.263  -2.648   0.138  0.00  0.00    +0.000 A 
ATOM      7  C   UNL     1       0.745  -1.741   0.475  0.00  0.00    +0.000 A 
ATOM      8  C   UNL     1       1.518  -1.942   1.620  0.00  0.00    +0.000 A 
ATOM      9  C   UNL     1       1.330  -3.093   2.389  0.00  0.00    +0.000 A 
ATOM     10  H   UNL     1      -1.222  -4.500   0.609  0.00  0.00    +0.000 HD
ATOM     11  H   UNL     1      -0.871  -2.492  -0.753  0.00  0.00    +0.000 HD
ATOM     12  H   UNL     1       2.296  -1.229   1.892  0.00  0.00    +0.000 HD
ATOM     13  H   UNL     1       1.953  -3.214   3.270  0.00  0.00    +0.000 HD
BRANCH   4  14
ATOM     14  N   UNL     1       0.259  -5.289   2.712  0.00  0.00    +0.000 N 
ATOM     15  H   UNL     1      -0.386  -5.932   2.232  0.00  0.00    +0.000 HD
BRANCH  14  16
ATOM     16  N   UNL     1       1.460  -5.883   3.356  0.00  0.00    +0.000 N 
ATOM     17  H   UNL     1       1.350  -6.887   3.559  0.00  0.00    +0.000 HD
ATOM     18  H   UNL     1       1.668  -5.373   4.229  0.00  0.00    +0.000 HD
ATOM     19  H   UNL     1       2.291  -5.733   2.760  0.00  0.00    +0.000 HD
ENDBRANCH  14  16
ENDBRANCH   4  14
ENDBRANCH   1   7
BRANCH   1  20
ATOM     20  N   UNL     1       0.317   0.803  -0.291  0.00  0.00    +0.000 NA
ATOM     21  C   UNL     1       0.350   1.871  -1.013  0.00  0.00    +0.000 A 
ATOM     22  N   UNL     1      -0.404   2.993  -0.779  0.00  0.00    +0.000 N 
ATOM     23  C   UNL     1      -0.374   3.986  -1.741  0.00  0.00    +0.000 A 
ATOM     24  C   UNL     1       0.501   3.725  -2.729  0.00  0.00    +0.000 A 
ATOM     25  S   UNL     1       1.305   2.191  -2.490  0.00  0.00    +0.000 S 
ATOM     26  H   UNL     1      -1.082   3.035  -0.035  0.00  0.00    +0.000 HD
ATOM     27  H   UNL     1       0.685   4.351  -3.593  0.00  0.00    +0.000 HD
BRANCH  23  28
ATOM     28  C   UNL     1      -1.252   5.145  -1.598  0.00  0.00    +0.000 C 
ATOM     29  C   UNL     1      -2.738   4.906  -1.468  0.00  0.00    +0.000 C 
ATOM     30  C   UNL     1      -2.188   5.533  -2.714  0.00  0.00    +0.000 C 
ATOM     31  H   UNL     1      -0.826   5.959  -1.018  0.00  0.00    +0.000 HD
ATOM     32  H   UNL     1      -3.294   5.535  -0.783  0.00  0.00    +0.000 HD
ATOM     33  H   UNL     1      -3.128   3.897  -1.556  0.00  0.00    +0.000 HD
ATOM     34  H   UNL     1      -2.382   6.589  -2.873  0.00  0.00    +0.000 HD
ATOM     35  H   UNL     1      -2.207   4.946  -3.626  0.00  0.00    +0.000 HD
ENDBRANCH  23  28
ENDBRANCH   1  20
TORSDOF 5
