REMARK  Name = 
REMARK  5 active torsions:
REMARK  status: ('A' for Active; 'I' for Inactive)
REMARK    1  A    between atoms: C_1  and  C_2
REMARK    2  A    between atoms: C_2  and  C_3
REMARK    3  A    between atoms: C_3  and  C_4
REMARK    4  A    between atoms: C_7  and  C_8
REMARK    5  A    between atoms: C_21  and  C_22
REMARK                            x       y       z     vdW  Elec       q    Type
REMARK                         _______ _______ _______ _____ _____    ______ ____
ROOT
ATOM      1  C   UNL     1      -2.592  -0.490  -0.210  0.00  0.00    +0.000 C 
ATOM      2  O   UNL     1      -2.867  -1.653  -0.540  0.00  0.00    +0.000 OA
ATOM      3  N   UNL     1      -1.259  -0.097  -0.156  0.00  0.00    +0.000 N 
ATOM      4  C   UNL     1      -0.663   1.189   0.161  0.00  0.00    +0.000 C 
ATOM      5  C   UNL     1       0.662   1.169  -0.594  0.00  0.00    +0.000 C 
ATOM      6  C   UNL     1       0.504   1.485  -2.080  0.00  0.00    +0.000 C 
ATOM      7  C   UNL     1       1.538   0.628  -2.805  0.00  0.00    +0.000 C 
ATOM      8  C   UNL     1       1.902  -0.539  -1.862  0.00  0.00    +0.000 C 
ATOM      9  N   UNL     1       1.640  -1.818  -2.461  0.00  0.00    +0.000 N 
ATOM     10  C   UNL     1       2.010  -2.958  -1.790  0.00  0.00    +0.000 C 
ATOM     11  O   UNL     1       1.369  -3.996  -1.882  0.00  0.00    +0.000 OA
ATOM     12  C   UNL     1       3.228  -2.842  -0.965  0.00  0.00    +0.000 A 
ATOM     13  C   UNL     1       3.737  -3.956  -0.295  0.00  0.00    +0.000 A 
ATOM     14  C   UNL     1       4.971  -3.867   0.352  0.00  0.00    +0.000 A 
ATOM     15  C   UNL     1       5.670  -2.652   0.317  0.00  0.00    +0.000 A 
ATOM     16  C   UNL     1       5.131  -1.531  -0.328  0.00  0.00    +0.000 A 
ATOM     17  C   UNL     1       3.878  -1.601  -0.938  0.00  0.00    +0.000 A 
ATOM     18  N   UNL     1       3.344  -0.493  -1.615  0.00  0.00    +0.000 N 
ATOM     19  C   UNL     1       1.094  -0.299  -0.559  0.00  0.00    +0.000 C 
ATOM     20  C   UNL     1      -0.228  -1.075  -0.447  0.00  0.00    +0.000 C 
ATOM     21  H   UNL     1      -0.493   1.204   1.245  0.00  0.00    +0.000 HD
ATOM     22  H   UNL     1      -1.282   2.039  -0.127  0.00  0.00    +0.000 HD
ATOM     23  H   UNL     1       1.409   1.831  -0.143  0.00  0.00    +0.000 HD
ATOM     24  H   UNL     1       0.658   2.552  -2.275  0.00  0.00    +0.000 HD
ATOM     25  H   UNL     1      -0.500   1.237  -2.444  0.00  0.00    +0.000 HD
ATOM     26  H   UNL     1       2.412   1.247  -3.045  0.00  0.00    +0.000 HD
ATOM     27  H   UNL     1       1.127   0.285  -3.761  0.00  0.00    +0.000 HD
ATOM     28  H   UNL     1       0.789  -1.937  -2.995  0.00  0.00    +0.000 HD
ATOM     29  H   UNL     1       3.183  -4.892  -0.314  0.00  0.00    +0.000 HD
ATOM     30  H   UNL     1       6.651  -2.575   0.782  0.00  0.00    +0.000 HD
ATOM     31  H   UNL     1       5.706  -0.610  -0.355  0.00  0.00    +0.000 HD
ATOM     32  H   UNL     1       3.697   0.398  -1.282  0.00  0.00    +0.000 HD
ATOM     33  H   UNL     1       1.689  -0.486   0.345  0.00  0.00    +0.000 HD
ATOM     34  H   UNL     1      -0.183  -1.789   0.384  0.00  0.00    +0.000 HD
ATOM     35  H   UNL     1      -0.520  -1.623  -1.345  0.00  0.00    +0.000 HD
ENDROOT
BRANCH   1  39
ATOM     36  C   UNL     1      -4.603   2.313   0.769  0.00  0.00    +0.000 A 
ATOM     37  C   UNL     1      -5.634   1.480   0.399  0.00  0.00    +0.000 A 
ATOM     38  C   UNL     1      -5.028   0.279  -0.030  0.00  0.00    +0.000 A 
ATOM     39  C   UNL     1      -3.656   0.446   0.090  0.00  0.00    +0.000 A 
ATOM     40  O   UNL     1      -3.406   1.694   0.584  0.00  0.00    +0.000 OA
ATOM     41  H   UNL     1      -6.691   1.701   0.459  0.00  0.00    +0.000 HD
ATOM     42  H   UNL     1      -5.515  -0.623  -0.378  0.00  0.00    +0.000 HD
BRANCH  36  43
ATOM     43  C   UNL     1      -4.555   3.671   1.365  0.00  0.00    +0.000 C 
ATOM     44  H   UNL     1      -3.652   4.193   1.027  0.00  0.00    +0.000 HD
ATOM     45  H   UNL     1      -5.413   4.256   1.013  0.00  0.00    +0.000 HD
BRANCH  43  46
ATOM     46  C   UNL     1      -4.569   3.567   2.889  0.00  0.00    +0.000 C 
ATOM     47  H   UNL     1      -5.456   3.010   3.214  0.00  0.00    +0.000 HD
ATOM     48  H   UNL     1      -3.697   2.996   3.231  0.00  0.00    +0.000 HD
BRANCH  46  49
ATOM     49  C   UNL     1      -4.568   4.926   3.567  0.00  0.00    +0.000 C 
ATOM     50  H   UNL     1      -4.596   4.796   4.653  0.00  0.00    +0.000 HD
ATOM     51  H   UNL     1      -5.443   5.514   3.273  0.00  0.00    +0.000 HD
ATOM     52  H   UNL     1      -3.667   5.492   3.315  0.00  0.00    +0.000 HD
ENDBRANCH  46  49
ENDBRANCH  43  46
ENDBRANCH  36  43
ENDBRANCH   1  39
BRANCH  14  53
ATOM     53  C   UNL     1       5.570  -5.068   1.020  0.00  0.00    +0.000 C 
ATOM     54  H   UNL     1       4.894  -5.929   0.975  0.00  0.00    +0.000 HD
ATOM     55  H   UNL     1       5.774  -4.856   2.074  0.00  0.00    +0.000 HD
ATOM     56  H   UNL     1       6.502  -5.348   0.519  0.00  0.00    +0.000 HD
ENDBRANCH  14  53
TORSDOF 5
