
 OpenBabel01112423033D

 51 53  0  0  1  0  0  0  0  0999 V2000
    2.4086    2.0452    1.9361 C   0  0  0  0  0  0  0  0  0  0  0  0
    0.9300    2.1206    1.6899 C   0  0  0  0  0  0  0  0  0  0  0  0
    0.4033    2.9403    0.6866 C   0  0  0  0  0  0  0  0  0  0  0  0
   -0.9791    3.0219    0.4918 C   0  0  0  0  0  0  0  0  0  0  0  0
   -1.8582    2.2886    1.3006 C   0  0  0  0  0  0  0  0  0  0  0  0
   -3.3519    2.3885    1.1104 C   0  0  0  0  0  0  0  0  0  0  0  0
   -3.8653    1.3378    0.1203 C   0  0  0  0  0  0  0  0  0  0  0  0
   -5.3888    1.4136   -0.1460 C   0  0  3  0  0  0  0  0  0  0  0  0
   -5.8424    0.3030   -1.1032 C   0  0  0  0  0  0  0  0  0  0  0  0
   -5.2255    0.4448   -2.4879 C   0  0  0  0  0  0  0  0  0  0  0  0
   -5.4685    1.8274   -3.0583 N   0  3  3  0  0  0  0  0  0  0  0  0
   -4.6434    2.0319   -4.3441 C   0  0  0  0  0  0  0  0  0  0  0  0
   -4.9544    1.0518   -5.4523 C   0  0  0  0  0  0  0  0  0  0  0  0
   -6.2209    1.0024   -5.8625 N   0  0  0  0  0  0  0  0  0  0  0  0
   -6.4754    0.0518   -6.7494 C   0  0  0  0  0  0  0  0  0  0  0  0
   -7.7656   -0.0542   -7.2143 N   0  0  0  0  0  0  0  0  0  0  0  0
   -5.5822   -0.8078   -7.2120 N   0  0  0  0  0  0  0  0  0  0  0  0
   -4.3613   -0.6951   -6.7161 C   0  0  0  0  0  0  0  0  0  0  0  0
   -3.4116   -1.5956   -7.1438 N   0  0  0  0  0  0  0  0  0  0  0  0
   -3.9905    0.2155   -5.8318 N   0  0  0  0  0  0  0  0  0  0  0  0
   -5.2452    2.9897   -2.1254 C   0  0  0  0  0  0  0  0  0  0  0  0
   -5.8529    2.7412   -0.7539 C   0  0  0  0  0  0  0  0  0  0  0  0
   -1.3272    1.4545    2.2910 C   0  0  0  0  0  0  0  0  0  0  0  0
    0.0538    1.3739    2.4849 C   0  0  0  0  0  0  0  0  0  0  0  0
    2.9661    2.6824    1.2418 H   0  0  0  0  0  0  0  0  0  0  0  0
    2.7615    1.0171    1.8072 H   0  0  0  0  0  0  0  0  0  0  0  0
    2.6369    2.3790    2.9537 H   0  0  0  0  0  0  0  0  0  0  0  0
    1.0675    3.5315    0.0597 H   0  0  0  0  0  0  0  0  0  0  0  0
   -1.3578    3.6800   -0.2858 H   0  0  0  0  0  0  0  0  0  0  0  0
   -3.5858    3.4003    0.7610 H   0  0  0  0  0  0  0  0  0  0  0  0
   -3.8570    2.2737    2.0769 H   0  0  0  0  0  0  0  0  0  0  0  0
   -3.6282    0.3361    0.5033 H   0  0  0  0  0  0  0  0  0  0  0  0
   -3.3018    1.4366   -0.8145 H   0  0  0  0  0  0  0  0  0  0  0  0
   -5.9065    1.2719    0.8115 H   0  0  0  0  0  0  0  0  0  0  0  0
   -6.9371    0.3284   -1.1934 H   0  0  0  0  0  0  0  0  0  0  0  0
   -5.5922   -0.6807   -0.6894 H   0  0  0  0  0  0  0  0  0  0  0  0
   -5.6860   -0.2754   -3.1724 H   0  0  0  0  0  0  0  0  0  0  0  0
   -4.1451    0.2723   -2.4702 H   0  0  0  0  0  0  0  0  0  0  0  0
   -6.4528    1.8433   -3.3666 H   0  0  0  0  0  0  0  0  0  0  0  0
   -3.5875    1.9754   -4.0553 H   0  0  0  0  0  0  0  0  0  0  0  0
   -4.8608    3.0456   -4.6980 H   0  0  0  0  0  0  0  0  0  0  0  0
   -8.2658    0.8221   -7.1931 H   0  0  0  0  0  0  0  0  0  0  0  0
   -7.7992   -0.5738   -8.0830 H   0  0  0  0  0  0  0  0  0  0  0  0
   -3.6679   -2.0263   -8.0235 H   0  0  0  0  0  0  0  0  0  0  0  0
   -2.4667   -1.2518   -7.0591 H   0  0  0  0  0  0  0  0  0  0  0  0
   -5.7106    3.8649   -2.5920 H   0  0  0  0  0  0  0  0  0  0  0  0
   -4.1665    3.1624   -2.0556 H   0  0  0  0  0  0  0  0  0  0  0  0
   -6.9479    2.7342   -0.8400 H   0  0  0  0  0  0  0  0  0  0  0  0
   -5.6161    3.5779   -0.0884 H   0  0  0  0  0  0  0  0  0  0  0  0
   -1.9832    0.8710    2.9328 H   0  0  0  0  0  0  0  0  0  0  0  0
    0.4450    0.7322    3.2722 H   0  0  0  0  0  0  0  0  0  0  0  0
  1  2  1  0  0  0  0
  1 25  1  0  0  0  0
  1 26  1  0  0  0  0
  1 27  1  0  0  0  0
  2  3  1  0  0  0  0
  2 24  2  0  0  0  0
  3  4  2  0  0  0  0
  3 28  1  0  0  0  0
  4  5  1  0  0  0  0
  4 29  1  0  0  0  0
  5  6  1  0  0  0  0
  5 23  2  0  0  0  0
  6  7  1  0  0  0  0
  6 30  1  0  0  0  0
  6 31  1  0  0  0  0
  7  8  1  0  0  0  0
  7 32  1  0  0  0  0
  7 33  1  0  0  0  0
  8  9  1  0  0  0  0
  8 22  1  0  0  0  0
  8 34  1  0  0  0  0
  9 10  1  0  0  0  0
  9 35  1  0  0  0  0
  9 36  1  0  0  0  0
 10 11  1  0  0  0  0
 10 37  1  0  0  0  0
 10 38  1  0  0  0  0
 11 12  1  0  0  0  0
 11 21  1  0  0  0  0
 11 39  1  0  0  0  0
 12 13  1  0  0  0  0
 12 40  1  0  0  0  0
 12 41  1  0  0  0  0
 13 14  1  0  0  0  0
 13 20  2  0  0  0  0
 14 15  2  0  0  0  0
 15 16  1  0  0  0  0
 15 17  1  0  0  0  0
 16 42  1  0  0  0  0
 16 43  1  0  0  0  0
 17 18  2  0  0  0  0
 18 19  1  0  0  0  0
 18 20  1  0  0  0  0
 19 44  1  0  0  0  0
 19 45  1  0  0  0  0
 21 22  1  0  0  0  0
 21 46  1  0  0  0  0
 21 47  1  0  0  0  0
 22 48  1  0  0  0  0
 22 49  1  0  0  0  0
 23 24  1  0  0  0  0
 23 50  1  0  0  0  0
 24 51  1  0  0  0  0
M  CHG  1  11   1
M  END
$$$$
