REMARK  Name = 
REMARK  13 active torsions:
REMARK  status: ('A' for Active; 'I' for Inactive)
REMARK    1  A    between atoms: C_1  and  C_2
REMARK    2  A    between atoms: C_2  and  C_3
REMARK    3  A    between atoms: C_2  and  C_4
REMARK    4  A    between atoms: C_2  and  N_5
REMARK    5  A    between atoms: N_8  and  C_9
REMARK    6  A    between atoms: C_9  and  C_10
REMARK    7  A    between atoms: C_10  and  C_11
REMARK    8  A    between atoms: C_14  and  N_15
REMARK    9  A    between atoms: C_16  and  O_18
REMARK   10  A    between atoms: O_18  and  C_19
REMARK   11  A    between atoms: C_19  and  C_20
REMARK   12  A    between atoms: C_19  and  C_21
REMARK   13  A    between atoms: C_19  and  C_22
REMARK                            x       y       z     vdW  Elec       q    Type
REMARK                         _______ _______ _______ _____ _____    ______ ____
ROOT
ATOM      1  C   UNL     1       0.271  -2.045   0.968  0.00  0.00    +0.000 A 
ATOM      2  C   UNL     1       0.681  -0.716   1.042  0.00  0.00    +0.000 A 
ATOM      3  C   UNL     1       2.021  -0.372   1.024  0.00  0.00    +0.000 A 
ATOM      4  C   UNL     1       3.031  -1.324   0.991  0.00  0.00    +0.000 A 
ATOM      5  C   UNL     1       2.645  -2.668   0.964  0.00  0.00    +0.000 A 
ATOM      6  C   UNL     1       1.273  -3.026   0.952  0.00  0.00    +0.000 A 
ATOM      7  H   UNL     1       0.000   0.124   1.102  0.00  0.00    +0.000 HD
ATOM      8  H   UNL     1       2.198   0.695   1.037  0.00  0.00    +0.000 HD
ATOM      9  H   UNL     1       3.390  -3.460   0.951  0.00  0.00    +0.000 HD
ATOM     10  H   UNL     1       1.007  -4.082   0.928  0.00  0.00    +0.000 HD
ENDROOT
BRANCH   4  11
ATOM     11  N   UNL     1       4.400  -0.947   0.978  0.00  0.00    +0.000 N 
ATOM     12  C   UNL     1       4.831   0.366   1.025  0.00  0.00    +0.000 C 
ATOM     13  O   UNL     1       4.109   1.348   1.119  0.00  0.00    +0.000 OA
ATOM     14  H   UNL     1       5.117  -1.658   0.928  0.00  0.00    +0.000 HD
BRANCH  12  15
ATOM     15  O   UNL     1       6.186   0.471   0.928  0.00  0.00    +0.000 OA
BRANCH  15  16
ATOM     16  C   UNL     1       6.706   1.835   0.860  0.00  0.00    +0.000 C 
BRANCH  16  17
ATOM     17  C   UNL     1       6.385   2.638   2.138  0.00  0.00    +0.000 C 
ATOM     18  H   UNL     1       6.755   2.113   3.025  0.00  0.00    +0.000 HD
ATOM     19  H   UNL     1       5.316   2.792   2.304  0.00  0.00    +0.000 HD
ATOM     20  H   UNL     1       6.837   3.635   2.104  0.00  0.00    +0.000 HD
ENDBRANCH  16  17
BRANCH  16  21
ATOM     21  C   UNL     1       8.233   1.720   0.763  0.00  0.00    +0.000 C 
ATOM     22  H   UNL     1       8.646   1.211   1.640  0.00  0.00    +0.000 HD
ATOM     23  H   UNL     1       8.696   2.710   0.690  0.00  0.00    +0.000 HD
ATOM     24  H   UNL     1       8.528   1.135  -0.114  0.00  0.00    +0.000 HD
ENDBRANCH  16  21
BRANCH  16  25
ATOM     25  C   UNL     1       6.214   2.546  -0.416  0.00  0.00    +0.000 C 
ATOM     26  H   UNL     1       5.130   2.688  -0.441  0.00  0.00    +0.000 HD
ATOM     27  H   UNL     1       6.460   1.952  -1.304  0.00  0.00    +0.000 HD
ATOM     28  H   UNL     1       6.666   3.537  -0.521  0.00  0.00    +0.000 HD
ENDBRANCH  16  25
ENDBRANCH  15  16
ENDBRANCH  12  15
ENDBRANCH   4  11
BRANCH   1  29
ATOM     29  C   UNL     1      -1.210  -2.373   0.933  0.00  0.00    +0.000 C 
ATOM     30  H   UNL     1      -1.377  -3.316   0.401  0.00  0.00    +0.000 HD
ATOM     31  H   UNL     1      -1.574  -2.499   1.959  0.00  0.00    +0.000 HD
BRANCH  29  32
ATOM     32  C   UNL     1      -1.993  -1.254   0.231  0.00  0.00    +0.000 C 
ATOM     33  H   UNL     1      -1.857  -0.314   0.770  0.00  0.00    +0.000 HD
ATOM     34  H   UNL     1      -1.615  -1.156  -0.795  0.00  0.00    +0.000 HD
BRANCH  32  38
ATOM     35  N   UNL     1      -5.522  -0.639  -0.537  0.00  0.00    +0.000 N 
ATOM     36  C   UNL     1      -4.192  -0.465  -0.465  0.00  0.00    +0.000 C 
ATOM     37  N   UNL     1      -3.609   0.622  -1.004  0.00  0.00    +0.000 N 
ATOM     38  N   UNL     1      -3.440  -1.411   0.160  0.00  0.00    +0.000 N 
ATOM     39  H   UNL     1      -5.920  -1.293   0.127  0.00  0.00    +0.000 HD
ATOM     40  H   UNL     1      -4.159   1.391  -1.357  0.00  0.00    +0.000 HD
ATOM     41  H   UNL     1      -2.608   0.758  -1.019  0.00  0.00    +0.000 HD
ATOM     42  H   UNL     1      -3.892  -2.230   0.549  0.00  0.00    +0.000 HD
BRANCH  35  43
ATOM     43  C   UNL     1      -6.451  -0.096  -1.578  0.00  0.00    +0.000 C 
BRANCH  43  44
ATOM     44  C   UNL     1      -5.799  -0.107  -2.973  0.00  0.00    +0.000 C 
ATOM     45  H   UNL     1      -6.522   0.158  -3.751  0.00  0.00    +0.000 HD
ATOM     46  H   UNL     1      -5.401  -1.103  -3.202  0.00  0.00    +0.000 HD
ATOM     47  H   UNL     1      -4.970   0.598  -3.063  0.00  0.00    +0.000 HD
ENDBRANCH  43  44
BRANCH  43  48
ATOM     48  C   UNL     1      -6.913   1.317  -1.205  0.00  0.00    +0.000 C 
ATOM     49  H   UNL     1      -7.634   1.701  -1.935  0.00  0.00    +0.000 HD
ATOM     50  H   UNL     1      -6.081   2.025  -1.162  0.00  0.00    +0.000 HD
ATOM     51  H   UNL     1      -7.390   1.325  -0.219  0.00  0.00    +0.000 HD
ENDBRANCH  43  48
BRANCH  43  52
ATOM     52  C   UNL     1      -7.671  -1.030  -1.627  0.00  0.00    +0.000 C 
ATOM     53  H   UNL     1      -8.400  -0.702  -2.375  0.00  0.00    +0.000 HD
ATOM     54  H   UNL     1      -8.171  -1.073  -0.653  0.00  0.00    +0.000 HD
ATOM     55  H   UNL     1      -7.361  -2.051  -1.876  0.00  0.00    +0.000 HD
ENDBRANCH  43  52
ENDBRANCH  35  43
ENDBRANCH  32  38
ENDBRANCH  29  32
ENDBRANCH   1  29
TORSDOF 13
