REMARK  Name = 
REMARK  4 active torsions:
REMARK  status: ('A' for Active; 'I' for Inactive)
REMARK    1  A    between atoms: C_2  and  C_14
REMARK    2  A    between atoms: N_3  and  C_4
REMARK    3  A    between atoms: C_8  and  C_9
REMARK    4  A    between atoms: N_20  and  C_21
REMARK                            x       y       z     vdW  Elec       q    Type
REMARK                         _______ _______ _______ _____ _____    ______ ____
ROOT
ATOM      1  C   UNL     1       0.651  -0.195   1.504  0.00  0.00    +0.000 A 
ATOM      2  C   UNL     1       1.663  -1.160   1.463  0.00  0.00    +0.000 A 
ATOM      3  C   UNL     1       2.499  -1.242   0.351  0.00  0.00    +0.000 A 
ATOM      4  C   UNL     1       2.364  -0.314  -0.685  0.00  0.00    +0.000 A 
ATOM      5  C   UNL     1       3.269  -0.354  -1.852  0.00  0.00    +0.000 A 
ATOM      6  O   UNL     1       3.995  -1.332  -1.979  0.00  0.00    +0.000 OA
ATOM      7  N   UNL     1       3.181   0.725  -2.746  0.00  0.00    +0.000 N 
ATOM      8  C   UNL     1       2.237   1.743  -2.640  0.00  0.00    +0.000 A 
ATOM      9  O   UNL     1       2.149   2.724  -3.386  0.00  0.00    +0.000 OA
ATOM     10  N   UNL     1       1.352   1.664  -1.598  0.00  0.00    +0.000 N 
ATOM     11  C   UNL     1       1.401   0.686  -0.611  0.00  0.00    +0.000 A 
ATOM     12  C   UNL     1       0.515   0.735   0.463  0.00  0.00    +0.000 A 
ATOM     13  H   UNL     1       1.796  -1.850   2.296  0.00  0.00    +0.000 HD
ATOM     14  H   UNL     1       3.265  -2.012   0.309  0.00  0.00    +0.000 HD
ATOM     15  H   UNL     1       0.699   2.435  -1.541  0.00  0.00    +0.000 HD
ATOM     16  H   UNL     1      -0.240   1.514   0.515  0.00  0.00    +0.000 HD
ENDROOT
BRANCH   7  17
ATOM     17  C   UNL     1       4.078   0.741  -3.856  0.00  0.00    +0.000 A 
ATOM     18  C   UNL     1       3.583   0.795  -5.166  0.00  0.00    +0.000 A 
ATOM     19  C   UNL     1       4.458   0.738  -6.253  0.00  0.00    +0.000 A 
ATOM     20  C   UNL     1       5.833   0.653  -6.041  0.00  0.00    +0.000 A 
ATOM     21  C   UNL     1       6.336   0.639  -4.740  0.00  0.00    +0.000 A 
ATOM     22  C   UNL     1       5.463   0.677  -3.651  0.00  0.00    +0.000 A 
ATOM     23  H   UNL     1       2.515   0.846  -5.353  0.00  0.00    +0.000 HD
ATOM     24  H   UNL     1       4.064   0.758  -7.266  0.00  0.00    +0.000 HD
ATOM     25  H   UNL     1       6.512   0.595  -6.887  0.00  0.00    +0.000 HD
ATOM     26  H   UNL     1       7.409   0.584  -4.573  0.00  0.00    +0.000 HD
ATOM     27  H   UNL     1       5.875   0.672  -2.645  0.00  0.00    +0.000 HD
ENDBRANCH   7  17
BRANCH   1  29
ATOM     28  O   UNL     1       0.156  -0.548   3.775  0.00  0.00    +0.000 OA
ATOM     29  C   UNL     1      -0.249  -0.182   2.683  0.00  0.00    +0.000 C 
ATOM     30  N   UNL     1      -1.537   0.233   2.429  0.00  0.00    +0.000 N 
ATOM     31  H   UNL     1      -1.819   0.391   1.474  0.00  0.00    +0.000 HD
BRANCH  30  32
ATOM     32  C   UNL     1      -2.563   0.240   3.461  0.00  0.00    +0.000 C 
ATOM     33  C   UNL     1      -3.591   1.334   3.170  0.00  0.00    +0.000 C 
ATOM     34  C   UNL     1      -4.463   0.998   1.965  0.00  0.00    +0.000 C 
ATOM     35  C   UNL     1      -5.155  -0.345   2.145  0.00  0.00    +0.000 C 
ATOM     36  C   UNL     1      -4.168  -1.487   2.433  0.00  0.00    +0.000 C 
ATOM     37  C   UNL     1      -3.227  -1.134   3.599  0.00  0.00    +0.000 C 
ATOM     38  H   UNL     1      -2.070   0.478   4.410  0.00  0.00    +0.000 HD
ATOM     39  H   UNL     1      -3.085   2.292   2.998  0.00  0.00    +0.000 HD
ATOM     40  H   UNL     1      -4.233   1.463   4.050  0.00  0.00    +0.000 HD
ATOM     41  H   UNL     1      -3.858   0.978   1.051  0.00  0.00    +0.000 HD
ATOM     42  H   UNL     1      -5.214   1.783   1.825  0.00  0.00    +0.000 HD
ATOM     43  H   UNL     1      -5.730  -0.575   1.240  0.00  0.00    +0.000 HD
ATOM     44  H   UNL     1      -5.878  -0.265   2.968  0.00  0.00    +0.000 HD
ATOM     45  H   UNL     1      -3.557  -1.636   1.531  0.00  0.00    +0.000 HD
ATOM     46  H   UNL     1      -2.466  -1.919   3.705  0.00  0.00    +0.000 HD
ATOM     47  H   UNL     1      -3.806  -1.132   4.532  0.00  0.00    +0.000 HD
BRANCH  36  48
ATOM     48  C   UNL     1      -4.919  -2.789   2.717  0.00  0.00    +0.000 C 
ATOM     49  F   UNL     1      -6.259  -2.624   2.635  0.00  0.00    +0.000 F 
ATOM     50  F   UNL     1      -4.579  -3.745   1.825  0.00  0.00    +0.000 F 
ATOM     51  F   UNL     1      -4.652  -3.271   3.949  0.00  0.00    +0.000 F 
ENDBRANCH  36  48
ENDBRANCH  30  32
ENDBRANCH   1  29
TORSDOF 4
