MODEL 1
REMARK VINA RESULT:    -9.321      0.000      0.000
REMARK INTER + INTRA:         -13.139
REMARK INTER:                 -11.500
REMARK INTRA:                  -1.638
REMARK UNBOUND:                -1.638
REMARK  Name = 
REMARK  4 active torsions:
REMARK  status: ('A' for Active; 'I' for Inactive)
REMARK    1  A    between atoms: C_2  and  C_4
REMARK    2  A    between atoms: N_8  and  C_9
REMARK    3  A    between atoms: C_11  and  C_12
REMARK    4  A    between atoms: C_22  and  C_23
REMARK                            x       y       z     vdW  Elec       q    Type
REMARK                         _______ _______ _______ _____ _____    ______ ____
ROOT
ATOM      1  C   UNL     1     -10.160  -5.091  17.158  0.00  0.00    +0.000 A 
ATOM      2  N   UNL     1     -10.024  -6.355  16.641  0.00  0.00    +0.000 NA
ATOM      3  C   UNL     1      -9.227  -7.278  17.187  0.00  0.00    +0.000 A 
ATOM      4  N   UNL     1      -8.466  -7.068  18.241  0.00  0.00    +0.000 NA
ATOM      5  C   UNL     1      -8.590  -5.840  18.772  0.00  0.00    +0.000 A 
ATOM      6  S   UNL     1      -7.584  -5.503  20.104  0.00  0.00    +0.000 S 
ATOM      7  C   UNL     1      -8.244  -3.964  20.284  0.00  0.00    +0.000 A 
ATOM      8  C   UNL     1      -9.235  -3.664  19.367  0.00  0.00    +0.000 A 
ATOM      9  C   UNL     1      -9.416  -4.787  18.370  0.00  0.00    +0.000 A 
ATOM     10  H   UNL     1      -7.870  -3.338  21.081  0.00  0.00    +0.000 HD
ENDROOT
BRANCH   1  15
ATOM     11  C   UNL     1     -10.488  -3.480  15.314  0.00  0.00    +0.000 C 
ATOM     12  C   UNL     1     -11.087  -2.104  15.574  0.00  0.00    +0.000 C 
ATOM     13  C   UNL     1     -12.469  -2.461  16.063  0.00  0.00    +0.000 C 
ATOM     14  C   UNL     1     -12.177  -3.643  16.998  0.00  0.00    +0.000 C 
ATOM     15  N   UNL     1     -10.996  -4.291  16.400  0.00  0.00    +0.000 N 
ATOM     16  H   UNL     1      -9.439  -3.350  15.449  0.00  0.00    +0.000 HD
ATOM     17  H   UNL     1     -11.070  -1.428  14.719  0.00  0.00    +0.000 HD
ATOM     18  H   UNL     1     -10.527  -1.612  16.384  0.00  0.00    +0.000 HD
ATOM     19  H   UNL     1     -13.090  -2.775  15.218  0.00  0.00    +0.000 HD
ATOM     20  H   UNL     1     -12.963  -1.626  16.566  0.00  0.00    +0.000 HD
ATOM     21  H   UNL     1     -13.035  -4.322  17.046  0.00  0.00    +0.000 HD
ATOM     22  H   UNL     1     -11.962  -3.250  17.999  0.00  0.00    +0.000 HD
BRANCH  11  24
ATOM     23  N   UNL     1      -9.978  -5.094  13.479  0.00  0.00    +0.000 N 
ATOM     24  C   UNL     1     -10.845  -4.157  13.962  0.00  0.00    +0.000 C 
ATOM     25  O   UNL     1     -11.869  -3.935  13.320  0.00  0.00    +0.000 OA
ATOM     26  H   UNL     1     -10.317  -5.608  12.674  0.00  0.00    +0.000 HD
ATOM     27  H   UNL     1      -9.241  -5.505  14.027  0.00  0.00    +0.000 HD
ENDBRANCH  11  24
ENDBRANCH   1  15
BRANCH   8  28
ATOM     28  C   UNL     1      -9.844  -2.324  19.555  0.00  0.00    +0.000 A 
ATOM     29  C   UNL     1      -9.632  -1.308  18.607  0.00  0.00    +0.000 A 
ATOM     30  C   UNL     1     -10.277  -0.070  18.713  0.00  0.00    +0.000 A 
ATOM     31  C   UNL     1     -11.181   0.156  19.745  0.00  0.00    +0.000 A 
ATOM     32  C   UNL     1     -11.314  -0.793  20.754  0.00  0.00    +0.000 A 
ATOM     33  C   UNL     1     -10.564  -1.977  20.707  0.00  0.00    +0.000 A 
ATOM     34  H   UNL     1      -8.971  -1.474  17.758  0.00  0.00    +0.000 HD
ATOM     35  H   UNL     1     -10.098   0.699  17.966  0.00  0.00    +0.000 HD
ATOM     36  H   UNL     1     -11.766   1.072  19.767  0.00  0.00    +0.000 HD
ATOM     37  H   UNL     1     -12.023  -0.627  21.561  0.00  0.00    +0.000 HD
ATOM     38  H   UNL     1     -10.637  -2.670  21.543  0.00  0.00    +0.000 HD
ENDBRANCH   8  28
BRANCH   3  39
ATOM     39  C   UNL     1      -9.199  -8.646  16.581  0.00  0.00    +0.000 A 
ATOM     40  C   UNL     1      -9.188  -9.804  17.370  0.00  0.00    +0.000 A 
ATOM     41  C   UNL     1      -9.178 -11.064  16.770  0.00  0.00    +0.000 A 
ATOM     42  C   UNL     1      -9.174 -11.153  15.388  0.00  0.00    +0.000 A 
ATOM     43  C   UNL     1      -9.187  -9.976  14.659  0.00  0.00    +0.000 A 
ATOM     44  N   UNL     1      -9.201  -8.743  15.218  0.00  0.00    +0.000 NA
ATOM     45  H   UNL     1      -9.191  -9.731  18.460  0.00  0.00    +0.000 HD
ATOM     46  H   UNL     1      -9.167 -11.961  17.376  0.00  0.00    +0.000 HD
ATOM     47  H   UNL     1      -9.163 -12.113  14.883  0.00  0.00    +0.000 HD
ATOM     48  H   UNL     1      -9.184  -9.986  13.575  0.00  0.00    +0.000 HD
ENDBRANCH   3  39
TORSDOF 4
ENDMDL
MODEL 2
REMARK VINA RESULT:    -8.644      2.313      6.876
REMARK INTER + INTRA:         -12.304
REMARK INTER:                 -10.905
REMARK INTRA:                  -1.399
REMARK UNBOUND:                -1.638
REMARK  Name = 
REMARK  4 active torsions:
REMARK  status: ('A' for Active; 'I' for Inactive)
REMARK    1  A    between atoms: C_2  and  C_4
REMARK    2  A    between atoms: N_8  and  C_9
REMARK    3  A    between atoms: C_11  and  C_12
REMARK    4  A    between atoms: C_22  and  C_23
REMARK                            x       y       z     vdW  Elec       q    Type
REMARK                         _______ _______ _______ _____ _____    ______ ____
ROOT
ATOM      1  C   UNL     1      -8.931  -5.977  18.107  0.00  0.00    +0.000 A 
ATOM      2  N   UNL     1      -8.580  -4.960  18.958  0.00  0.00    +0.000 NA
ATOM      3  C   UNL     1      -8.197  -5.173  20.220  0.00  0.00    +0.000 A 
ATOM      4  N   UNL     1      -8.152  -6.360  20.790  0.00  0.00    +0.000 NA
ATOM      5  C   UNL     1      -8.483  -7.374  19.972  0.00  0.00    +0.000 A 
ATOM      6  S   UNL     1      -8.495  -8.923  20.679  0.00  0.00    +0.000 S 
ATOM      7  C   UNL     1      -8.896  -9.650  19.213  0.00  0.00    +0.000 A 
ATOM      8  C   UNL     1      -9.020  -8.763  18.158  0.00  0.00    +0.000 A 
ATOM      9  C   UNL     1      -8.841  -7.334  18.621  0.00  0.00    +0.000 A 
ATOM     10  H   UNL     1      -9.015 -10.723  19.191  0.00  0.00    +0.000 HD
ENDROOT
BRANCH   1  15
ATOM     11  C   UNL     1     -10.647  -4.917  16.678  0.00  0.00    +0.000 C 
ATOM     12  C   UNL     1     -11.209  -5.643  15.463  0.00  0.00    +0.000 C 
ATOM     13  C   UNL     1      -9.981  -5.786  14.598  0.00  0.00    +0.000 C 
ATOM     14  C   UNL     1      -8.916  -6.190  15.628  0.00  0.00    +0.000 C 
ATOM     15  N   UNL     1      -9.343  -5.518  16.868  0.00  0.00    +0.000 N 
ATOM     16  H   UNL     1     -11.276  -5.211  17.485  0.00  0.00    +0.000 HD
ATOM     17  H   UNL     1     -12.048  -5.141  14.978  0.00  0.00    +0.000 HD
ATOM     18  H   UNL     1     -11.562  -6.639  15.766  0.00  0.00    +0.000 HD
ATOM     19  H   UNL     1      -9.737  -4.822  14.140  0.00  0.00    +0.000 HD
ATOM     20  H   UNL     1     -10.113  -6.524  13.803  0.00  0.00    +0.000 HD
ATOM     21  H   UNL     1      -7.921  -5.862  15.307  0.00  0.00    +0.000 HD
ATOM     22  H   UNL     1      -8.928  -7.281  15.731  0.00  0.00    +0.000 HD
BRANCH  11  24
ATOM     23  N   UNL     1      -9.843  -2.734  17.584  0.00  0.00    +0.000 N 
ATOM     24  C   UNL     1     -10.486  -3.376  16.565  0.00  0.00    +0.000 C 
ATOM     25  O   UNL     1     -10.862  -2.705  15.607  0.00  0.00    +0.000 OA
ATOM     26  H   UNL     1      -9.637  -1.758  17.403  0.00  0.00    +0.000 HD
ATOM     27  H   UNL     1      -9.308  -3.208  18.290  0.00  0.00    +0.000 HD
ENDBRANCH  11  24
ENDBRANCH   1  15
BRANCH   8  28
ATOM     28  C   UNL     1      -9.330  -9.410  16.860  0.00  0.00    +0.000 A 
ATOM     29  C   UNL     1     -10.508  -9.081  16.165  0.00  0.00    +0.000 A 
ATOM     30  C   UNL     1     -10.771  -9.605  14.894  0.00  0.00    +0.000 A 
ATOM     31  C   UNL     1      -9.838 -10.430  14.276  0.00  0.00    +0.000 A 
ATOM     32  C   UNL     1      -8.726 -10.858  14.994  0.00  0.00    +0.000 A 
ATOM     33  C   UNL     1      -8.537 -10.430  16.316  0.00  0.00    +0.000 A 
ATOM     34  H   UNL     1     -11.231  -8.395  16.601  0.00  0.00    +0.000 HD
ATOM     35  H   UNL     1     -11.687  -9.333  14.377  0.00  0.00    +0.000 HD
ATOM     36  H   UNL     1      -9.987 -10.747  13.247  0.00  0.00    +0.000 HD
ATOM     37  H   UNL     1      -7.988 -11.499  14.517  0.00  0.00    +0.000 HD
ATOM     38  H   UNL     1      -7.696 -10.835  16.877  0.00  0.00    +0.000 HD
ENDBRANCH   8  28
BRANCH   3  39
ATOM     39  C   UNL     1      -7.773  -3.999  21.046  0.00  0.00    +0.000 A 
ATOM     40  C   UNL     1      -6.513  -3.942  21.656  0.00  0.00    +0.000 A 
ATOM     41  C   UNL     1      -6.145  -2.823  22.407  0.00  0.00    +0.000 A 
ATOM     42  C   UNL     1      -7.043  -1.778  22.544  0.00  0.00    +0.000 A 
ATOM     43  C   UNL     1      -8.273  -1.889  21.916  0.00  0.00    +0.000 A 
ATOM     44  N   UNL     1      -8.650  -2.961  21.180  0.00  0.00    +0.000 NA
ATOM     45  H   UNL     1      -5.806  -4.768  21.549  0.00  0.00    +0.000 HD
ATOM     46  H   UNL     1      -5.174  -2.776  22.883  0.00  0.00    +0.000 HD
ATOM     47  H   UNL     1      -6.797  -0.893  23.121  0.00  0.00    +0.000 HD
ATOM     48  H   UNL     1      -9.014  -1.101  21.989  0.00  0.00    +0.000 HD
ENDBRANCH   3  39
TORSDOF 4
ENDMDL
MODEL 3
REMARK VINA RESULT:    -8.357      3.059      7.941
REMARK INTER + INTRA:         -11.950
REMARK INTER:                 -10.432
REMARK INTRA:                  -1.517
REMARK UNBOUND:                -1.638
REMARK  Name = 
REMARK  4 active torsions:
REMARK  status: ('A' for Active; 'I' for Inactive)
REMARK    1  A    between atoms: C_2  and  C_4
REMARK    2  A    between atoms: N_8  and  C_9
REMARK    3  A    between atoms: C_11  and  C_12
REMARK    4  A    between atoms: C_22  and  C_23
REMARK                            x       y       z     vdW  Elec       q    Type
REMARK                         _______ _______ _______ _____ _____    ______ ____
ROOT
ATOM      1  C   UNL     1      -9.740  -4.295  18.821  0.00  0.00    +0.000 A 
ATOM      2  N   UNL     1      -9.954  -3.140  19.531  0.00  0.00    +0.000 NA
ATOM      3  C   UNL     1     -10.727  -2.147  19.081  0.00  0.00    +0.000 A 
ATOM      4  N   UNL     1     -11.327  -2.150  17.908  0.00  0.00    +0.000 NA
ATOM      5  C   UNL     1     -11.140  -3.275  17.199  0.00  0.00    +0.000 A 
ATOM      6  S   UNL     1     -11.851  -3.303  15.651  0.00  0.00    +0.000 S 
ATOM      7  C   UNL     1     -11.322  -4.878  15.375  0.00  0.00    +0.000 A 
ATOM      8  C   UNL     1     -10.613  -5.428  16.428  0.00  0.00    +0.000 A 
ATOM      9  C   UNL     1     -10.424  -4.425  17.544  0.00  0.00    +0.000 A 
ATOM     10  H   UNL     1     -11.569  -5.342  14.432  0.00  0.00    +0.000 HD
ENDROOT
BRANCH   1  15
ATOM     11  C   UNL     1      -7.443  -4.894  19.507  0.00  0.00    +0.000 C 
ATOM     12  C   UNL     1      -6.812  -6.207  19.064  0.00  0.00    +0.000 C 
ATOM     13  C   UNL     1      -7.718  -7.218  19.722  0.00  0.00    +0.000 C 
ATOM     14  C   UNL     1      -9.105  -6.612  19.466  0.00  0.00    +0.000 C 
ATOM     15  N   UNL     1      -8.866  -5.158  19.457  0.00  0.00    +0.000 N 
ATOM     16  H   UNL     1      -7.199  -4.201  18.736  0.00  0.00    +0.000 HD
ATOM     17  H   UNL     1      -5.756  -6.315  19.314  0.00  0.00    +0.000 HD
ATOM     18  H   UNL     1      -6.894  -6.299  17.970  0.00  0.00    +0.000 HD
ATOM     19  H   UNL     1      -7.503  -7.264  20.795  0.00  0.00    +0.000 HD
ATOM     20  H   UNL     1      -7.602  -8.220  19.302  0.00  0.00    +0.000 HD
ATOM     21  H   UNL     1      -9.809  -6.906  20.253  0.00  0.00    +0.000 HD
ATOM     22  H   UNL     1      -9.468  -6.971  18.495  0.00  0.00    +0.000 HD
BRANCH  11  24
ATOM     23  N   UNL     1      -8.094  -4.121  21.789  0.00  0.00    +0.000 N 
ATOM     24  C   UNL     1      -7.070  -4.378  20.924  0.00  0.00    +0.000 C 
ATOM     25  O   UNL     1      -5.921  -4.224  21.330  0.00  0.00    +0.000 OA
ATOM     26  H   UNL     1      -7.804  -3.924  22.740  0.00  0.00    +0.000 HD
ATOM     27  H   UNL     1      -9.041  -4.424  21.637  0.00  0.00    +0.000 HD
ENDBRANCH  11  24
ENDBRANCH   1  15
BRANCH   8  28
ATOM     28  C   UNL     1     -10.185  -6.831  16.199  0.00  0.00    +0.000 A 
ATOM     29  C   UNL     1     -11.037  -7.897  16.536  0.00  0.00    +0.000 A 
ATOM     30  C   UNL     1     -10.695  -9.221  16.237  0.00  0.00    +0.000 A 
ATOM     31  C   UNL     1      -9.517  -9.497  15.553  0.00  0.00    +0.000 A 
ATOM     32  C   UNL     1      -8.611  -8.468  15.316  0.00  0.00    +0.000 A 
ATOM     33  C   UNL     1      -8.904  -7.163  15.737  0.00  0.00    +0.000 A 
ATOM     34  H   UNL     1     -11.992  -7.708  17.024  0.00  0.00    +0.000 HD
ATOM     35  H   UNL     1     -11.372 -10.028  16.507  0.00  0.00    +0.000 HD
ATOM     36  H   UNL     1      -9.303 -10.510  15.221  0.00  0.00    +0.000 HD
ATOM     37  H   UNL     1      -7.689  -8.674  14.777  0.00  0.00    +0.000 HD
ATOM     38  H   UNL     1      -8.148  -6.392  15.600  0.00  0.00    +0.000 HD
ENDBRANCH   8  28
BRANCH   3  39
ATOM     39  C   UNL     1     -10.946  -0.957  19.962  0.00  0.00    +0.000 A 
ATOM     40  C   UNL     1     -11.557  -1.071  21.218  0.00  0.00    +0.000 A 
ATOM     41  C   UNL     1     -11.731   0.059  22.020  0.00  0.00    +0.000 A 
ATOM     42  C   UNL     1     -11.297   1.290  21.555  0.00  0.00    +0.000 A 
ATOM     43  C   UNL     1     -10.697   1.340  20.308  0.00  0.00    +0.000 A 
ATOM     44  N   UNL     1     -10.514   0.259  19.514  0.00  0.00    +0.000 NA
ATOM     45  H   UNL     1     -11.900  -2.042  21.582  0.00  0.00    +0.000 HD
ATOM     46  H   UNL     1     -12.205  -0.023  22.989  0.00  0.00    +0.000 HD
ATOM     47  H   UNL     1     -11.416   2.191  22.146  0.00  0.00    +0.000 HD
ATOM     48  H   UNL     1     -10.339   2.276  19.894  0.00  0.00    +0.000 HD
ENDBRANCH   3  39
TORSDOF 4
ENDMDL
MODEL 4
REMARK VINA RESULT:    -8.355      2.854      4.707
REMARK INTER + INTRA:         -11.947
REMARK INTER:                 -10.810
REMARK INTRA:                  -1.138
REMARK UNBOUND:                -1.638
REMARK  Name = 
REMARK  4 active torsions:
REMARK  status: ('A' for Active; 'I' for Inactive)
REMARK    1  A    between atoms: C_2  and  C_4
REMARK    2  A    between atoms: N_8  and  C_9
REMARK    3  A    between atoms: C_11  and  C_12
REMARK    4  A    between atoms: C_22  and  C_23
REMARK                            x       y       z     vdW  Elec       q    Type
REMARK                         _______ _______ _______ _____ _____    ______ ____
ROOT
ATOM      1  C   UNL     1      -9.042  -4.543  19.161  0.00  0.00    +0.000 A 
ATOM      2  N   UNL     1      -8.846  -5.899  19.237  0.00  0.00    +0.000 NA
ATOM      3  C   UNL     1      -9.505  -6.769  18.466  0.00  0.00    +0.000 A 
ATOM      4  N   UNL     1     -10.428  -6.430  17.589  0.00  0.00    +0.000 NA
ATOM      5  C   UNL     1     -10.629  -5.105  17.490  0.00  0.00    +0.000 A 
ATOM      6  S   UNL     1     -11.853  -4.621  16.409  0.00  0.00    +0.000 S 
ATOM      7  C   UNL     1     -11.551  -2.992  16.710  0.00  0.00    +0.000 A 
ATOM      8  C   UNL     1     -10.527  -2.764  17.612  0.00  0.00    +0.000 A 
ATOM      9  C   UNL     1      -9.988  -4.064  18.167  0.00  0.00    +0.000 A 
ATOM     10  H   UNL     1     -12.149  -2.257  16.191  0.00  0.00    +0.000 HD
ENDROOT
BRANCH   1  15
ATOM     11  C   UNL     1      -7.461  -4.524  21.060  0.00  0.00    +0.000 C 
ATOM     12  C   UNL     1      -7.836  -3.871  22.384  0.00  0.00    +0.000 C 
ATOM     13  C   UNL     1      -8.009  -2.429  21.974  0.00  0.00    +0.000 C 
ATOM     14  C   UNL     1      -8.773  -2.567  20.649  0.00  0.00    +0.000 C 
ATOM     15  N   UNL     1      -8.292  -3.843  20.089  0.00  0.00    +0.000 N 
ATOM     16  H   UNL     1      -7.797  -5.531  21.149  0.00  0.00    +0.000 HD
ATOM     17  H   UNL     1      -7.121  -4.029  23.192  0.00  0.00    +0.000 HD
ATOM     18  H   UNL     1      -8.801  -4.273  22.726  0.00  0.00    +0.000 HD
ATOM     19  H   UNL     1      -7.028  -1.969  21.815  0.00  0.00    +0.000 HD
ATOM     20  H   UNL     1      -8.549  -1.844  22.723  0.00  0.00    +0.000 HD
ATOM     21  H   UNL     1      -8.557  -1.723  19.986  0.00  0.00    +0.000 HD
ATOM     22  H   UNL     1      -9.847  -2.599  20.868  0.00  0.00    +0.000 HD
BRANCH  11  24
ATOM     23  N   UNL     1      -5.591  -5.129  19.522  0.00  0.00    +0.000 N 
ATOM     24  C   UNL     1      -5.974  -4.418  20.622  0.00  0.00    +0.000 C 
ATOM     25  O   UNL     1      -5.133  -3.711  21.172  0.00  0.00    +0.000 OA
ATOM     26  H   UNL     1      -4.656  -4.922  19.190  0.00  0.00    +0.000 HD
ATOM     27  H   UNL     1      -6.238  -5.551  18.878  0.00  0.00    +0.000 HD
ENDBRANCH  11  24
ENDBRANCH   1  15
BRANCH   8  28
ATOM     28  C   UNL     1     -10.235  -1.328  17.842  0.00  0.00    +0.000 A 
ATOM     29  C   UNL     1     -11.072  -0.556  18.668  0.00  0.00    +0.000 A 
ATOM     30  C   UNL     1     -10.760   0.772  18.978  0.00  0.00    +0.000 A 
ATOM     31  C   UNL     1      -9.581   1.338  18.505  0.00  0.00    +0.000 A 
ATOM     32  C   UNL     1      -8.803   0.629  17.595  0.00  0.00    +0.000 A 
ATOM     33  C   UNL     1      -9.193  -0.655  17.189  0.00  0.00    +0.000 A 
ATOM     34  H   UNL     1     -11.974  -0.989  19.097  0.00  0.00    +0.000 HD
ATOM     35  H   UNL     1     -11.422   1.347  19.620  0.00  0.00    +0.000 HD
ATOM     36  H   UNL     1      -9.281   2.330  18.834  0.00  0.00    +0.000 HD
ATOM     37  H   UNL     1      -7.876   1.061  17.224  0.00  0.00    +0.000 HD
ATOM     38  H   UNL     1      -8.604  -1.158  16.424  0.00  0.00    +0.000 HD
ENDBRANCH   8  28
BRANCH   3  39
ATOM     39  C   UNL     1      -9.171  -8.223  18.584  0.00  0.00    +0.000 A 
ATOM     40  C   UNL     1      -9.257  -9.093  17.488  0.00  0.00    +0.000 A 
ATOM     41  C   UNL     1      -8.922 -10.441  17.632  0.00  0.00    +0.000 A 
ATOM     42  C   UNL     1      -8.511 -10.906  18.870  0.00  0.00    +0.000 A 
ATOM     43  C   UNL     1      -8.443 -10.000  19.916  0.00  0.00    +0.000 A 
ATOM     44  N   UNL     1      -8.758  -8.689  19.801  0.00  0.00    +0.000 NA
ATOM     45  H   UNL     1      -9.582  -8.724  16.513  0.00  0.00    +0.000 HD
ATOM     46  H   UNL     1      -8.990 -11.116  16.789  0.00  0.00    +0.000 HD
ATOM     47  H   UNL     1      -8.246 -11.946  19.024  0.00  0.00    +0.000 HD
ATOM     48  H   UNL     1      -8.128 -10.309  20.906  0.00  0.00    +0.000 HD
ENDBRANCH   3  39
TORSDOF 4
ENDMDL
MODEL 5
REMARK VINA RESULT:    -8.290      3.091      4.740
REMARK INTER + INTRA:         -11.867
REMARK INTER:                 -10.078
REMARK INTRA:                  -1.789
REMARK UNBOUND:                -1.638
REMARK  Name = 
REMARK  4 active torsions:
REMARK  status: ('A' for Active; 'I' for Inactive)
REMARK    1  A    between atoms: C_2  and  C_4
REMARK    2  A    between atoms: N_8  and  C_9
REMARK    3  A    between atoms: C_11  and  C_12
REMARK    4  A    between atoms: C_22  and  C_23
REMARK                            x       y       z     vdW  Elec       q    Type
REMARK                         _______ _______ _______ _____ _____    ______ ____
ROOT
ATOM      1  C   UNL     1      -9.591  -2.761  20.435  0.00  0.00    +0.000 A 
ATOM      2  N   UNL     1      -9.722  -3.605  19.361  0.00  0.00    +0.000 NA
ATOM      3  C   UNL     1      -8.821  -4.547  19.067  0.00  0.00    +0.000 A 
ATOM      4  N   UNL     1      -7.705  -4.740  19.740  0.00  0.00    +0.000 NA
ATOM      5  C   UNL     1      -7.559  -3.930  20.803  0.00  0.00    +0.000 A 
ATOM      6  S   UNL     1      -6.106  -4.105  21.673  0.00  0.00    +0.000 S 
ATOM      7  C   UNL     1      -6.574  -2.941  22.796  0.00  0.00    +0.000 A 
ATOM      8  C   UNL     1      -7.826  -2.400  22.562  0.00  0.00    +0.000 A 
ATOM      9  C   UNL     1      -8.427  -2.947  21.286  0.00  0.00    +0.000 A 
ATOM     10  H   UNL     1      -5.895  -2.707  23.603  0.00  0.00    +0.000 HD
ENDROOT
BRANCH   1  15
ATOM     11  C   UNL     1     -10.485  -0.511  19.941  0.00  0.00    +0.000 C 
ATOM     12  C   UNL     1     -10.929   0.418  21.063  0.00  0.00    +0.000 C 
ATOM     13  C   UNL     1     -12.073  -0.359  21.668  0.00  0.00    +0.000 C 
ATOM     14  C   UNL     1     -11.509  -1.788  21.685  0.00  0.00    +0.000 C 
ATOM     15  N   UNL     1     -10.616  -1.835  20.514  0.00  0.00    +0.000 N 
ATOM     16  H   UNL     1      -9.450  -0.300  19.806  0.00  0.00    +0.000 HD
ATOM     17  H   UNL     1     -11.186   1.429  20.746  0.00  0.00    +0.000 HD
ATOM     18  H   UNL     1     -10.118   0.509  21.801  0.00  0.00    +0.000 HD
ATOM     19  H   UNL     1     -12.950  -0.292  21.016  0.00  0.00    +0.000 HD
ATOM     20  H   UNL     1     -12.348   0.006  22.660  0.00  0.00    +0.000 HD
ATOM     21  H   UNL     1     -12.317  -2.524  21.613  0.00  0.00    +0.000 HD
ATOM     22  H   UNL     1     -10.960  -1.934  22.622  0.00  0.00    +0.000 HD
BRANCH  11  24
ATOM     23  N   UNL     1     -11.438  -1.608  17.911  0.00  0.00    +0.000 N 
ATOM     24  C   UNL     1     -11.293  -0.448  18.616  0.00  0.00    +0.000 C 
ATOM     25  O   UNL     1     -11.842   0.563  18.181  0.00  0.00    +0.000 OA
ATOM     26  H   UNL     1     -12.086  -1.551  17.134  0.00  0.00    +0.000 HD
ATOM     27  H   UNL     1     -11.227  -2.517  18.286  0.00  0.00    +0.000 HD
ENDBRANCH  11  24
ENDBRANCH   1  15
BRANCH   8  28
ATOM     28  C   UNL     1      -8.253  -1.407  23.578  0.00  0.00    +0.000 A 
ATOM     29  C   UNL     1      -8.829  -1.832  24.788  0.00  0.00    +0.000 A 
ATOM     30  C   UNL     1      -9.147  -0.919  25.800  0.00  0.00    +0.000 A 
ATOM     31  C   UNL     1      -8.852   0.430  25.637  0.00  0.00    +0.000 A 
ATOM     32  C   UNL     1      -8.391   0.882  24.404  0.00  0.00    +0.000 A 
ATOM     33  C   UNL     1      -8.199  -0.025  23.352  0.00  0.00    +0.000 A 
ATOM     34  H   UNL     1      -9.022  -2.888  24.966  0.00  0.00    +0.000 HD
ATOM     35  H   UNL     1      -9.590  -1.272  26.728  0.00  0.00    +0.000 HD
ATOM     36  H   UNL     1      -8.994   1.124  26.462  0.00  0.00    +0.000 HD
ATOM     37  H   UNL     1      -8.152   1.934  24.269  0.00  0.00    +0.000 HD
ATOM     38  H   UNL     1      -7.904   0.365  22.379  0.00  0.00    +0.000 HD
ENDBRANCH   8  28
BRANCH   3  39
ATOM     39  C   UNL     1      -9.091  -5.457  17.910  0.00  0.00    +0.000 A 
ATOM     40  C   UNL     1      -8.208  -6.487  17.558  0.00  0.00    +0.000 A 
ATOM     41  C   UNL     1      -8.501  -7.328  16.482  0.00  0.00    +0.000 A 
ATOM     42  C   UNL     1      -9.670  -7.126  15.767  0.00  0.00    +0.000 A 
ATOM     43  C   UNL     1     -10.505  -6.094  16.162  0.00  0.00    +0.000 A 
ATOM     44  N   UNL     1     -10.245  -5.269  17.203  0.00  0.00    +0.000 NA
ATOM     45  H   UNL     1      -7.287  -6.644  18.123  0.00  0.00    +0.000 HD
ATOM     46  H   UNL     1      -7.820  -8.122  16.205  0.00  0.00    +0.000 HD
ATOM     47  H   UNL     1      -9.931  -7.754  14.923  0.00  0.00    +0.000 HD
ATOM     48  H   UNL     1     -11.432  -5.890  15.638  0.00  0.00    +0.000 HD
ENDBRANCH   3  39
TORSDOF 4
ENDMDL
MODEL 6
REMARK VINA RESULT:    -8.080      3.411      5.628
REMARK INTER + INTRA:         -11.608
REMARK INTER:                  -9.829
REMARK INTRA:                  -1.778
REMARK UNBOUND:                -1.638
REMARK  Name = 
REMARK  4 active torsions:
REMARK  status: ('A' for Active; 'I' for Inactive)
REMARK    1  A    between atoms: C_2  and  C_4
REMARK    2  A    between atoms: N_8  and  C_9
REMARK    3  A    between atoms: C_11  and  C_12
REMARK    4  A    between atoms: C_22  and  C_23
REMARK                            x       y       z     vdW  Elec       q    Type
REMARK                         _______ _______ _______ _____ _____    ______ ____
ROOT
ATOM      1  C   UNL     1     -10.281  -1.884  20.451  0.00  0.00    +0.000 A 
ATOM      2  N   UNL     1     -10.670  -2.382  19.233  0.00  0.00    +0.000 NA
ATOM      3  C   UNL     1     -10.046  -3.402  18.637  0.00  0.00    +0.000 A 
ATOM      4  N   UNL     1      -8.982  -4.006  19.125  0.00  0.00    +0.000 NA
ATOM      5  C   UNL     1      -8.588  -3.541  20.322  0.00  0.00    +0.000 A 
ATOM      6  S   UNL     1      -7.183  -4.254  20.969  0.00  0.00    +0.000 S 
ATOM      7  C   UNL     1      -7.292  -3.329  22.372  0.00  0.00    +0.000 A 
ATOM      8  C   UNL     1      -8.381  -2.475  22.403  0.00  0.00    +0.000 A 
ATOM      9  C   UNL     1      -9.160  -2.536  21.108  0.00  0.00    +0.000 A 
ATOM     10  H   UNL     1      -6.538  -3.465  23.133  0.00  0.00    +0.000 HD
ENDROOT
BRANCH   1  15
ATOM     11  C   UNL     1     -10.679   0.555  20.472  0.00  0.00    +0.000 C 
ATOM     12  C   UNL     1     -10.735   1.328  21.783  0.00  0.00    +0.000 C 
ATOM     13  C   UNL     1     -11.936   0.706  22.453  0.00  0.00    +0.000 C 
ATOM     14  C   UNL     1     -11.728  -0.785  22.152  0.00  0.00    +0.000 C 
ATOM     15  N   UNL     1     -11.038  -0.796  20.849  0.00  0.00    +0.000 N 
ATOM     16  H   UNL     1      -9.652   0.568  20.192  0.00  0.00    +0.000 HD
ATOM     17  H   UNL     1     -10.788   2.412  21.674  0.00  0.00    +0.000 HD
ATOM     18  H   UNL     1      -9.832   1.108  22.372  0.00  0.00    +0.000 HD
ATOM     19  H   UNL     1     -12.854   1.076  21.983  0.00  0.00    +0.000 HD
ATOM     20  H   UNL     1     -11.980   0.927  23.522  0.00  0.00    +0.000 HD
ATOM     21  H   UNL     1     -12.688  -1.311  22.111  0.00  0.00    +0.000 HD
ATOM     22  H   UNL     1     -11.106  -1.216  22.945  0.00  0.00    +0.000 HD
BRANCH  11  24
ATOM     23  N   UNL     1     -11.649   0.296  18.186  0.00  0.00    +0.000 N 
ATOM     24  C   UNL     1     -11.623   1.034  19.334  0.00  0.00    +0.000 C 
ATOM     25  O   UNL     1     -12.373   2.004  19.412  0.00  0.00    +0.000 OA
ATOM     26  H   UNL     1     -12.376   0.560  17.531  0.00  0.00    +0.000 HD
ATOM     27  H   UNL     1     -11.252  -0.625  18.108  0.00  0.00    +0.000 HD
ENDBRANCH  11  24
ENDBRANCH   1  15
BRANCH   8  28
ATOM     28  C   UNL     1      -8.498  -1.694  23.659  0.00  0.00    +0.000 A 
ATOM     29  C   UNL     1      -8.253  -0.310  23.660  0.00  0.00    +0.000 A 
ATOM     30  C   UNL     1      -8.455   0.462  24.810  0.00  0.00    +0.000 A 
ATOM     31  C   UNL     1      -8.950  -0.130  25.966  0.00  0.00    +0.000 A 
ATOM     32  C   UNL     1      -9.086  -1.514  26.017  0.00  0.00    +0.000 A 
ATOM     33  C   UNL     1      -8.757  -2.294  24.899  0.00  0.00    +0.000 A 
ATOM     34  H   UNL     1      -7.917   0.191  22.754  0.00  0.00    +0.000 HD
ATOM     35  H   UNL     1      -8.261   1.531  24.784  0.00  0.00    +0.000 HD
ATOM     36  H   UNL     1      -9.213   0.483  26.824  0.00  0.00    +0.000 HD
ATOM     37  H   UNL     1      -9.478  -1.985  26.916  0.00  0.00    +0.000 HD
ATOM     38  H   UNL     1      -8.807  -3.377  24.990  0.00  0.00    +0.000 HD
ENDBRANCH   8  28
BRANCH   3  39
ATOM     39  C   UNL     1     -10.589  -3.910  17.338  0.00  0.00    +0.000 A 
ATOM     40  C   UNL     1     -11.035  -3.041  16.333  0.00  0.00    +0.000 A 
ATOM     41  C   UNL     1     -11.522  -3.551  15.128  0.00  0.00    +0.000 A 
ATOM     42  C   UNL     1     -11.563  -4.924  14.943  0.00  0.00    +0.000 A 
ATOM     43  C   UNL     1     -11.107  -5.733  15.971  0.00  0.00    +0.000 A 
ATOM     44  N   UNL     1     -10.627  -5.262  17.146  0.00  0.00    +0.000 NA
ATOM     45  H   UNL     1     -11.003  -1.960  16.481  0.00  0.00    +0.000 HD
ATOM     46  H   UNL     1     -11.870  -2.884  14.350  0.00  0.00    +0.000 HD
ATOM     47  H   UNL     1     -11.937  -5.359  14.023  0.00  0.00    +0.000 HD
ATOM     48  H   UNL     1     -11.116  -6.813  15.881  0.00  0.00    +0.000 HD
ENDBRANCH   3  39
TORSDOF 4
ENDMDL
MODEL 7
REMARK VINA RESULT:    -7.884      1.238      2.027
REMARK INTER + INTRA:         -11.366
REMARK INTER:                 -10.051
REMARK INTRA:                  -1.315
REMARK UNBOUND:                -1.638
REMARK  Name = 
REMARK  4 active torsions:
REMARK  status: ('A' for Active; 'I' for Inactive)
REMARK    1  A    between atoms: C_2  and  C_4
REMARK    2  A    between atoms: N_8  and  C_9
REMARK    3  A    between atoms: C_11  and  C_12
REMARK    4  A    between atoms: C_22  and  C_23
REMARK                            x       y       z     vdW  Elec       q    Type
REMARK                         _______ _______ _______ _____ _____    ______ ____
ROOT
ATOM      1  C   UNL     1      -9.715  -5.523  17.062  0.00  0.00    +0.000 A 
ATOM      2  N   UNL     1      -9.649  -6.808  16.586  0.00  0.00    +0.000 NA
ATOM      3  C   UNL     1      -8.990  -7.781  17.221  0.00  0.00    +0.000 A 
ATOM      4  N   UNL     1      -8.310  -7.610  18.336  0.00  0.00    +0.000 NA
ATOM      5  C   UNL     1      -8.368  -6.360  18.827  0.00  0.00    +0.000 A 
ATOM      6  S   UNL     1      -7.458  -6.075  20.238  0.00  0.00    +0.000 S 
ATOM      7  C   UNL     1      -7.989  -4.479  20.325  0.00  0.00    +0.000 A 
ATOM      8  C   UNL     1      -8.864  -4.119  19.316  0.00  0.00    +0.000 A 
ATOM      9  C   UNL     1      -9.057  -5.250  18.330  0.00  0.00    +0.000 A 
ATOM     10  H   UNL     1      -7.631  -3.866  21.139  0.00  0.00    +0.000 HD
ENDROOT
BRANCH   1  15
ATOM     11  C   UNL     1     -11.852  -4.667  16.163  0.00  0.00    +0.000 C 
ATOM     12  C   UNL     1     -12.164  -4.753  14.675  0.00  0.00    +0.000 C 
ATOM     13  C   UNL     1     -11.087  -3.876  14.086  0.00  0.00    +0.000 C 
ATOM     14  C   UNL     1      -9.855  -4.302  14.899  0.00  0.00    +0.000 C 
ATOM     15  N   UNL     1     -10.405  -4.674  16.215  0.00  0.00    +0.000 N 
ATOM     16  H   UNL     1     -12.211  -5.584  16.569  0.00  0.00    +0.000 HD
ATOM     17  H   UNL     1     -13.181  -4.465  14.403  0.00  0.00    +0.000 HD
ATOM     18  H   UNL     1     -12.022  -5.789  14.333  0.00  0.00    +0.000 HD
ATOM     19  H   UNL     1     -11.328  -2.823  14.265  0.00  0.00    +0.000 HD
ATOM     20  H   UNL     1     -10.965  -4.027  13.011  0.00  0.00    +0.000 HD
ATOM     21  H   UNL     1      -9.136  -3.479  14.974  0.00  0.00    +0.000 HD
ATOM     22  H   UNL     1      -9.386  -5.156  14.398  0.00  0.00    +0.000 HD
BRANCH  11  24
ATOM     23  N   UNL     1     -12.515  -3.517  18.277  0.00  0.00    +0.000 N 
ATOM     24  C   UNL     1     -12.383  -3.420  16.922  0.00  0.00    +0.000 C 
ATOM     25  O   UNL     1     -12.654  -2.345  16.392  0.00  0.00    +0.000 OA
ATOM     26  H   UNL     1     -12.728  -2.643  18.744  0.00  0.00    +0.000 HD
ATOM     27  H   UNL     1     -12.114  -4.261  18.823  0.00  0.00    +0.000 HD
ENDBRANCH  11  24
ENDBRANCH   1  15
BRANCH   8  28
ATOM     28  C   UNL     1      -9.363  -2.726  19.420  0.00  0.00    +0.000 A 
ATOM     29  C   UNL     1      -9.414  -1.903  18.281  0.00  0.00    +0.000 A 
ATOM     30  C   UNL     1      -9.973  -0.621  18.337  0.00  0.00    +0.000 A 
ATOM     31  C   UNL     1     -10.533  -0.158  19.522  0.00  0.00    +0.000 A 
ATOM     32  C   UNL     1     -10.387  -0.911  20.684  0.00  0.00    +0.000 A 
ATOM     33  C   UNL     1      -9.709  -2.137  20.644  0.00  0.00    +0.000 A 
ATOM     34  H   UNL     1      -9.033  -2.259  17.326  0.00  0.00    +0.000 HD
ATOM     35  H   UNL     1     -10.003  -0.005  17.442  0.00  0.00    +0.000 HD
ATOM     36  H   UNL     1     -11.067   0.789  19.541  0.00  0.00    +0.000 HD
ATOM     37  H   UNL     1     -10.827  -0.559  21.614  0.00  0.00    +0.000 HD
ATOM     38  H   UNL     1      -9.549  -2.671  21.579  0.00  0.00    +0.000 HD
ENDBRANCH   8  28
BRANCH   3  39
ATOM     39  C   UNL     1      -9.034  -9.164  16.649  0.00  0.00    +0.000 A 
ATOM     40  C   UNL     1      -9.219  -9.390  15.278  0.00  0.00    +0.000 A 
ATOM     41  C   UNL     1      -9.239 -10.694  14.777  0.00  0.00    +0.000 A 
ATOM     42  C   UNL     1      -9.078 -11.755  15.652  0.00  0.00    +0.000 A 
ATOM     43  C   UNL     1      -8.896 -11.470  16.995  0.00  0.00    +0.000 A 
ATOM     44  N   UNL     1      -8.869 -10.216  17.504  0.00  0.00    +0.000 NA
ATOM     45  H   UNL     1      -9.346  -8.552  14.590  0.00  0.00    +0.000 HD
ATOM     46  H   UNL     1      -9.385 -10.873  13.720  0.00  0.00    +0.000 HD
ATOM     47  H   UNL     1      -9.090 -12.782  15.304  0.00  0.00    +0.000 HD
ATOM     48  H   UNL     1      -8.766 -12.262  17.725  0.00  0.00    +0.000 HD
ENDBRANCH   3  39
TORSDOF 4
ENDMDL
MODEL 8
REMARK VINA RESULT:    -7.865      2.614      4.291
REMARK INTER + INTRA:         -11.343
REMARK INTER:                 -10.105
REMARK INTRA:                  -1.238
REMARK UNBOUND:                -1.638
REMARK  Name = 
REMARK  4 active torsions:
REMARK  status: ('A' for Active; 'I' for Inactive)
REMARK    1  A    between atoms: C_2  and  C_4
REMARK    2  A    between atoms: N_8  and  C_9
REMARK    3  A    between atoms: C_11  and  C_12
REMARK    4  A    between atoms: C_22  and  C_23
REMARK                            x       y       z     vdW  Elec       q    Type
REMARK                         _______ _______ _______ _____ _____    ______ ____
ROOT
ATOM      1  C   UNL     1     -10.182  -4.382  17.957  0.00  0.00    +0.000 A 
ATOM      2  N   UNL     1      -9.981  -5.736  18.053  0.00  0.00    +0.000 NA
ATOM      3  C   UNL     1     -10.202  -6.573  17.035  0.00  0.00    +0.000 A 
ATOM      4  N   UNL     1     -10.667  -6.203  15.859  0.00  0.00    +0.000 NA
ATOM      5  C   UNL     1     -10.862  -4.879  15.739  0.00  0.00    +0.000 A 
ATOM      6  S   UNL     1     -11.514  -4.357  14.255  0.00  0.00    +0.000 S 
ATOM      7  C   UNL     1     -11.443  -2.742  14.727  0.00  0.00    +0.000 A 
ATOM      8  C   UNL     1     -10.922  -2.547  15.994  0.00  0.00    +0.000 A 
ATOM      9  C   UNL     1     -10.622  -3.865  16.672  0.00  0.00    +0.000 A 
ATOM     10  H   UNL     1     -11.787  -1.991  14.031  0.00  0.00    +0.000 HD
ENDROOT
BRANCH   1  15
ATOM     11  C   UNL     1     -10.458  -2.392  19.396  0.00  0.00    +0.000 C 
ATOM     12  C   UNL     1      -9.248  -1.615  19.898  0.00  0.00    +0.000 C 
ATOM     13  C   UNL     1      -8.554  -2.650  20.750  0.00  0.00    +0.000 C 
ATOM     14  C   UNL     1      -8.672  -3.907  19.877  0.00  0.00    +0.000 C 
ATOM     15  N   UNL     1      -9.939  -3.721  19.149  0.00  0.00    +0.000 N 
ATOM     16  H   UNL     1     -10.702  -1.943  18.462  0.00  0.00    +0.000 HD
ATOM     17  H   UNL     1      -9.484  -0.685  20.417  0.00  0.00    +0.000 HD
ATOM     18  H   UNL     1      -8.606  -1.353  19.044  0.00  0.00    +0.000 HD
ATOM     19  H   UNL     1      -9.095  -2.775  21.694  0.00  0.00    +0.000 HD
ATOM     20  H   UNL     1      -7.519  -2.379  20.977  0.00  0.00    +0.000 HD
ATOM     21  H   UNL     1      -8.686  -4.810  20.497  0.00  0.00    +0.000 HD
ATOM     22  H   UNL     1      -7.813  -3.941  19.197  0.00  0.00    +0.000 HD
BRANCH  11  24
ATOM     23  N   UNL     1     -12.572  -3.497  20.132  0.00  0.00    +0.000 N 
ATOM     24  C   UNL     1     -11.676  -2.492  20.356  0.00  0.00    +0.000 C 
ATOM     25  O   UNL     1     -11.866  -1.754  21.320  0.00  0.00    +0.000 OA
ATOM     26  H   UNL     1     -13.269  -3.610  20.860  0.00  0.00    +0.000 HD
ATOM     27  H   UNL     1     -12.394  -4.276  19.522  0.00  0.00    +0.000 HD
ENDBRANCH  11  24
ENDBRANCH   1  15
BRANCH   8  28
ATOM     28  C   UNL     1     -10.821  -1.120  16.390  0.00  0.00    +0.000 A 
ATOM     29  C   UNL     1     -11.972  -0.400  16.754  0.00  0.00    +0.000 A 
ATOM     30  C   UNL     1     -11.887   0.915  17.225  0.00  0.00    +0.000 A 
ATOM     31  C   UNL     1     -10.643   1.516  17.386  0.00  0.00    +0.000 A 
ATOM     32  C   UNL     1      -9.506   0.862  16.922  0.00  0.00    +0.000 A 
ATOM     33  C   UNL     1      -9.617  -0.404  16.330  0.00  0.00    +0.000 A 
ATOM     34  H   UNL     1     -12.955  -0.863  16.691  0.00  0.00    +0.000 HD
ATOM     35  H   UNL     1     -12.791   1.450  17.502  0.00  0.00    +0.000 HD
ATOM     36  H   UNL     1     -10.566   2.494  17.855  0.00  0.00    +0.000 HD
ATOM     37  H   UNL     1      -8.529   1.323  17.048  0.00  0.00    +0.000 HD
ATOM     38  H   UNL     1      -8.721  -0.862  15.915  0.00  0.00    +0.000 HD
ENDBRANCH   8  28
BRANCH   3  39
ATOM     39  C   UNL     1      -9.891  -8.025  17.224  0.00  0.00    +0.000 A 
ATOM     40  C   UNL     1     -10.302  -8.995  16.300  0.00  0.00    +0.000 A 
ATOM     41  C   UNL     1      -9.981 -10.339  16.502  0.00  0.00    +0.000 A 
ATOM     42  C   UNL     1      -9.256 -10.698  17.626  0.00  0.00    +0.000 A 
ATOM     43  C   UNL     1      -8.875  -9.696  18.503  0.00  0.00    +0.000 A 
ATOM     44  N   UNL     1      -9.171  -8.387  18.327  0.00  0.00    +0.000 NA
ATOM     45  H   UNL     1     -10.874  -8.710  15.415  0.00  0.00    +0.000 HD
ATOM     46  H   UNL     1     -10.299 -11.092  15.792  0.00  0.00    +0.000 HD
ATOM     47  H   UNL     1      -8.989 -11.731  17.820  0.00  0.00    +0.000 HD
ATOM     48  H   UNL     1      -8.307  -9.920  19.399  0.00  0.00    +0.000 HD
ENDBRANCH   3  39
TORSDOF 4
ENDMDL
MODEL 9
REMARK VINA RESULT:    -7.732      2.320      3.414
REMARK INTER + INTRA:         -11.179
REMARK INTER:                  -9.586
REMARK INTRA:                  -1.592
REMARK UNBOUND:                -1.638
REMARK  Name = 
REMARK  4 active torsions:
REMARK  status: ('A' for Active; 'I' for Inactive)
REMARK    1  A    between atoms: C_2  and  C_4
REMARK    2  A    between atoms: N_8  and  C_9
REMARK    3  A    between atoms: C_11  and  C_12
REMARK    4  A    between atoms: C_22  and  C_23
REMARK                            x       y       z     vdW  Elec       q    Type
REMARK                         _______ _______ _______ _____ _____    ______ ____
ROOT
ATOM      1  C   UNL     1     -10.807  -3.923  15.610  0.00  0.00    +0.000 A 
ATOM      2  N   UNL     1     -10.442  -5.232  15.800  0.00  0.00    +0.000 NA
ATOM      3  C   UNL     1     -10.315  -5.778  17.013  0.00  0.00    +0.000 A 
ATOM      4  N   UNL     1     -10.484  -5.121  18.142  0.00  0.00    +0.000 NA
ATOM      5  C   UNL     1     -10.851  -3.838  17.980  0.00  0.00    +0.000 A 
ATOM      6  S   UNL     1     -11.028  -2.932  19.412  0.00  0.00    +0.000 S 
ATOM      7  C   UNL     1     -11.514  -1.567  18.554  0.00  0.00    +0.000 A 
ATOM      8  C   UNL     1     -11.569  -1.751  17.183  0.00  0.00    +0.000 A 
ATOM      9  C   UNL     1     -11.090  -3.133  16.798  0.00  0.00    +0.000 A 
ATOM     10  H   UNL     1     -11.752  -0.672  19.110  0.00  0.00    +0.000 HD
ENDROOT
BRANCH   1  15
ATOM     11  C   UNL     1     -10.294  -2.291  13.827  0.00  0.00    +0.000 C 
ATOM     12  C   UNL     1     -11.398  -1.726  12.942  0.00  0.00    +0.000 C 
ATOM     13  C   UNL     1     -11.890  -2.968  12.239  0.00  0.00    +0.000 C 
ATOM     14  C   UNL     1     -11.919  -3.988  13.385  0.00  0.00    +0.000 C 
ATOM     15  N   UNL     1     -10.824  -3.562  14.274  0.00  0.00    +0.000 N 
ATOM     16  H   UNL     1     -10.249  -1.629  14.660  0.00  0.00    +0.000 HD
ATOM     17  H   UNL     1     -11.084  -0.922  12.275  0.00  0.00    +0.000 HD
ATOM     18  H   UNL     1     -12.201  -1.322  13.576  0.00  0.00    +0.000 HD
ATOM     19  H   UNL     1     -11.171  -3.265  11.468  0.00  0.00    +0.000 HD
ATOM     20  H   UNL     1     -12.865  -2.822  11.766  0.00  0.00    +0.000 HD
ATOM     21  H   UNL     1     -11.765  -5.004  13.005  0.00  0.00    +0.000 HD
ATOM     22  H   UNL     1     -12.895  -3.925  13.882  0.00  0.00    +0.000 HD
BRANCH  11  24
ATOM     23  N   UNL     1      -8.234  -3.660  13.494  0.00  0.00    +0.000 N 
ATOM     24  C   UNL     1      -8.909  -2.522  13.161  0.00  0.00    +0.000 C 
ATOM     25  O   UNL     1      -8.402  -1.773  12.329  0.00  0.00    +0.000 OA
ATOM     26  H   UNL     1      -7.408  -3.839  12.935  0.00  0.00    +0.000 HD
ATOM     27  H   UNL     1      -8.653  -4.434  13.981  0.00  0.00    +0.000 HD
ENDBRANCH  11  24
ENDBRANCH   1  15
BRANCH   8  28
ATOM     28  C   UNL     1     -12.040  -0.560  16.434  0.00  0.00    +0.000 A 
ATOM     29  C   UNL     1     -13.305  -0.561  15.820  0.00  0.00    +0.000 A 
ATOM     30  C   UNL     1     -13.808   0.585  15.194  0.00  0.00    +0.000 A 
ATOM     31  C   UNL     1     -13.075   1.766  15.212  0.00  0.00    +0.000 A 
ATOM     32  C   UNL     1     -11.775   1.752  15.711  0.00  0.00    +0.000 A 
ATOM     33  C   UNL     1     -11.231   0.564  16.219  0.00  0.00    +0.000 A 
ATOM     34  H   UNL     1     -13.926  -1.455  15.838  0.00  0.00    +0.000 HD
ATOM     35  H   UNL     1     -14.790   0.560  14.729  0.00  0.00    +0.000 HD
ATOM     36  H   UNL     1     -13.509   2.684  14.826  0.00  0.00    +0.000 HD
ATOM     37  H   UNL     1     -11.197   2.673  15.734  0.00  0.00    +0.000 HD
ATOM     38  H   UNL     1     -10.190   0.566  16.538  0.00  0.00    +0.000 HD
ENDBRANCH   8  28
BRANCH   3  39
ATOM     39  C   UNL     1      -9.975  -7.232  17.109  0.00  0.00    +0.000 A 
ATOM     40  C   UNL     1      -9.167  -7.736  18.137  0.00  0.00    +0.000 A 
ATOM     41  C   UNL     1      -8.883  -9.101  18.204  0.00  0.00    +0.000 A 
ATOM     42  C   UNL     1      -9.405  -9.947  17.239  0.00  0.00    +0.000 A 
ATOM     43  C   UNL     1     -10.198  -9.393  16.248  0.00  0.00    +0.000 A 
ATOM     44  N   UNL     1     -10.490  -8.074  16.164  0.00  0.00    +0.000 NA
ATOM     45  H   UNL     1      -8.756  -7.067  18.897  0.00  0.00    +0.000 HD
ATOM     46  H   UNL     1      -8.258  -9.494  18.995  0.00  0.00    +0.000 HD
ATOM     47  H   UNL     1      -9.205 -11.012  17.253  0.00  0.00    +0.000 HD
ATOM     48  H   UNL     1     -10.632 -10.007  15.467  0.00  0.00    +0.000 HD
ENDBRANCH   3  39
TORSDOF 4
ENDMDL
