REMARK  Name = 
REMARK  13 active torsions:
REMARK  status: ('A' for Active; 'I' for Inactive)
REMARK    1  A    between atoms: C_1  and  C_2
REMARK    2  A    between atoms: C_2  and  C_3
REMARK    3  A    between atoms: C_2  and  C_4
REMARK    4  A    between atoms: C_2  and  O_5
REMARK    5  A    between atoms: O_5  and  C_6
REMARK    6  A    between atoms: N_8  and  C_9
REMARK    7  A    between atoms: C_13  and  N_14
REMARK    8  A    between atoms: N_14  and  C_15
REMARK    9  A    between atoms: C_15  and  C_16
REMARK   10  A    between atoms: C_16  and  C_17
REMARK   11  A    between atoms: C_16  and  O_18
REMARK   12  A    between atoms: C_16  and  C_19
REMARK   13  A    between atoms: C_19  and  O_20
REMARK                            x       y       z     vdW  Elec       q    Type
REMARK                         _______ _______ _______ _____ _____    ______ ____
ROOT
ATOM      1  C   UNL     1      -0.748  -2.271  -0.675  0.00  0.00    +0.000 C 
ATOM      2  C   UNL     1      -2.139  -2.213  -1.342  0.00  0.00    +0.000 C 
ATOM      3  C   UNL     1      -2.230  -1.147  -2.430  0.00  0.00    +0.000 C 
ATOM      4  C   UNL     1      -1.138  -1.348  -3.481  0.00  0.00    +0.000 C 
ATOM      5  C   UNL     1       0.272  -1.422  -2.872  0.00  0.00    +0.000 C 
ATOM      6  C   UNL     1       0.315  -2.493  -1.766  0.00  0.00    +0.000 C 
ATOM      7  H   UNL     1      -0.736  -3.125   0.015  0.00  0.00    +0.000 HD
ATOM      8  H   UNL     1      -2.945  -2.065  -0.620  0.00  0.00    +0.000 HD
ATOM      9  H   UNL     1      -2.342  -3.192  -1.801  0.00  0.00    +0.000 HD
ATOM     10  H   UNL     1      -2.157  -0.148  -1.985  0.00  0.00    +0.000 HD
ATOM     11  H   UNL     1      -3.216  -1.198  -2.909  0.00  0.00    +0.000 HD
ATOM     12  H   UNL     1      -1.201  -0.559  -4.239  0.00  0.00    +0.000 HD
ATOM     13  H   UNL     1      -1.341  -2.294  -4.005  0.00  0.00    +0.000 HD
ATOM     14  H   UNL     1       1.003  -1.644  -3.658  0.00  0.00    +0.000 HD
ATOM     15  H   UNL     1       1.312  -2.556  -1.319  0.00  0.00    +0.000 HD
ATOM     16  H   UNL     1       0.145  -3.473  -2.231  0.00  0.00    +0.000 HD
ENDROOT
BRANCH   1  19
ATOM     17  C   UNL     1      -1.181  -0.654   1.165  0.00  0.00    +0.000 C 
ATOM     18  O   UNL     1      -2.344  -0.993   1.313  0.00  0.00    +0.000 OA
ATOM     19  N   UNL     1      -0.384  -1.103   0.142  0.00  0.00    +0.000 N 
ATOM     20  H   UNL     1       0.575  -1.052   0.470  0.00  0.00    +0.000 HD
BRANCH  17  21
ATOM     21  O   UNL     1      -0.469   0.171   1.973  0.00  0.00    +0.000 OA
BRANCH  21  22
ATOM     22  C   UNL     1      -1.117   0.724   3.162  0.00  0.00    +0.000 C 
BRANCH  22  23
ATOM     23  C   UNL     1      -1.495  -0.414   4.113  0.00  0.00    +0.000 C 
ATOM     24  H   UNL     1      -1.948  -0.033   5.032  0.00  0.00    +0.000 HD
ATOM     25  H   UNL     1      -0.607  -1.002   4.372  0.00  0.00    +0.000 HD
ATOM     26  H   UNL     1      -2.205  -1.110   3.660  0.00  0.00    +0.000 HD
ENDBRANCH  22  23
BRANCH  22  27
ATOM     27  C   UNL     1      -2.327   1.590   2.782  0.00  0.00    +0.000 C 
ATOM     28  H   UNL     1      -2.810   2.012   3.669  0.00  0.00    +0.000 HD
ATOM     29  H   UNL     1      -3.089   1.022   2.242  0.00  0.00    +0.000 HD
ATOM     30  H   UNL     1      -2.031   2.411   2.120  0.00  0.00    +0.000 HD
ENDBRANCH  22  27
BRANCH  22  31
ATOM     31  C   UNL     1      -0.095   1.622   3.895  0.00  0.00    +0.000 C 
ATOM     32  H   UNL     1      -0.519   2.024   4.825  0.00  0.00    +0.000 HD
ATOM     33  H   UNL     1       0.226   2.470   3.280  0.00  0.00    +0.000 HD
ATOM     34  H   UNL     1       0.812   1.064   4.156  0.00  0.00    +0.000 HD
ENDBRANCH  22  31
ENDBRANCH  21  22
ENDBRANCH  17  21
ENDBRANCH   1  19
BRANCH   5  35
ATOM     35  N   UNL     1       0.644  -0.071  -2.316  0.00  0.00    +0.000 N 
ATOM     36  H   UNL     1      -0.058   0.172  -1.604  0.00  0.00    +0.000 HD
ATOM     37  H   UNL     1       0.574   0.663  -3.041  0.00  0.00    +0.000 HD
BRANCH  35  38
ATOM     38  C   UNL     1       2.021   0.063  -1.698  0.00  0.00    +0.000 C 
ATOM     39  H   UNL     1       2.725  -0.168  -2.503  0.00  0.00    +0.000 HD
ATOM     40  H   UNL     1       2.115  -0.679  -0.906  0.00  0.00    +0.000 HD
BRANCH  38  41
ATOM     41  C   UNL     1       2.248   1.494  -1.151  0.00  0.00    +0.000 C 
BRANCH  41  42
ATOM     42  C   UNL     1       1.203   1.930  -0.119  0.00  0.00    +0.000 C 
ATOM     43  H   UNL     1       1.340   2.982   0.152  0.00  0.00    +0.000 HD
ATOM     44  H   UNL     1       1.279   1.340   0.798  0.00  0.00    +0.000 HD
ATOM     45  H   UNL     1       0.181   1.857  -0.501  0.00  0.00    +0.000 HD
ENDBRANCH  41  42
BRANCH  41  46
ATOM     46  C   UNL     1       3.650   1.554  -0.506  0.00  0.00    +0.000 C 
ATOM     47  H   UNL     1       3.890   2.564  -0.155  0.00  0.00    +0.000 HD
ATOM     48  H   UNL     1       4.421   1.281  -1.234  0.00  0.00    +0.000 HD
BRANCH  46  49
ATOM     49  O   UNL     1       3.724   0.641   0.585  0.00  0.00    +0.000 OA
ATOM     50  H   UNL     1       3.572   1.137   1.413  0.00  0.00    +0.000 HD
ENDBRANCH  46  49
ENDBRANCH  41  46
BRANCH  41  51
ATOM     51  O   UNL     1       2.146   2.382  -2.271  0.00  0.00    +0.000 OA
ATOM     52  H   UNL     1       2.481   3.258  -1.995  0.00  0.00    +0.000 HD
ENDBRANCH  41  51
ENDBRANCH  38  41
ENDBRANCH  35  38
ENDBRANCH   5  35
TORSDOF 13
