MODEL 1
REMARK VINA RESULT:   -12.550      0.000      0.000
REMARK INTER + INTRA:         -15.123
REMARK INTER:                 -14.751
REMARK INTRA:                  -0.372
REMARK UNBOUND:                -0.372
REMARK  Name = 
REMARK  3 active torsions:
REMARK  status: ('A' for Active; 'I' for Inactive)
REMARK    1  A    between atoms: C_2  and  C_20
REMARK    2  A    between atoms: N_3  and  N_4
REMARK    3  A    between atoms: C_5  and  C_7
REMARK                            x       y       z     vdW  Elec       q    Type
REMARK                         _______ _______ _______ _____ _____    ______ ____
ROOT
ATOM      1  N   UNL     1      -8.842  -5.175  19.257  0.00  0.00    +0.000 N 
ATOM      2  C   UNL     1      -9.855  -5.704  18.475  0.00  0.00    +0.000 C 
ATOM      3  O   UNL     1     -10.935  -5.115  18.384  0.00  0.00    +0.000 OA
ATOM      4  H   UNL     1      -7.934  -5.620  19.372  0.00  0.00    +0.000 HD
ENDROOT
BRANCH   2   5
ATOM      5  C   UNL     1      -9.575  -6.954  17.779  0.00  0.00    +0.000 A 
ATOM      6  C   UNL     1      -9.393  -7.097  16.414  0.00  0.00    +0.000 A 
ATOM      7  C   UNL     1      -9.127  -8.443  16.034  0.00  0.00    +0.000 A 
ATOM      8  C   UNL     1      -9.133  -9.301  17.121  0.00  0.00    +0.000 A 
ATOM      9  S   UNL     1      -9.435  -8.468  18.576  0.00  0.00    +0.000 S 
ATOM     10  C   UNL     1      -8.914 -10.753  16.987  0.00  0.00    +0.000 A 
ATOM     11  C   UNL     1      -8.622 -11.604  18.058  0.00  0.00    +0.000 A 
ATOM     12  C   UNL     1      -8.397 -12.967  17.837  0.00  0.00    +0.000 A 
ATOM     13  C   UNL     1      -8.467 -13.496  16.549  0.00  0.00    +0.000 A 
ATOM     14  C   UNL     1      -8.764 -12.666  15.470  0.00  0.00    +0.000 A 
ATOM     15  C   UNL     1      -8.975 -11.295  15.676  0.00  0.00    +0.000 A 
ATOM     16  C   UNL     1      -9.348 -10.408  14.499  0.00  0.00    +0.000 C 
ATOM     17  C   UNL     1      -8.846  -8.963  14.657  0.00  0.00    +0.000 C 
ATOM     18  H   UNL     1      -9.441  -6.260  15.725  0.00  0.00    +0.000 HD
ATOM     19  H   UNL     1      -8.554 -11.225  19.073  0.00  0.00    +0.000 HD
ATOM     20  H   UNL     1      -8.164 -13.619  18.676  0.00  0.00    +0.000 HD
ATOM     21  H   UNL     1      -8.294 -14.557  16.387  0.00  0.00    +0.000 HD
ATOM     22  H   UNL     1      -8.829 -13.091  14.472  0.00  0.00    +0.000 HD
ATOM     23  H   UNL     1     -10.442 -10.410  14.416  0.00  0.00    +0.000 HD
ATOM     24  H   UNL     1      -8.946 -10.820  13.566  0.00  0.00    +0.000 HD
ATOM     25  H   UNL     1      -9.304  -8.323  13.895  0.00  0.00    +0.000 HD
ATOM     26  H   UNL     1      -7.759  -8.935  14.498  0.00  0.00    +0.000 HD
ENDBRANCH   2   5
BRANCH   1  29
ATOM     27  O   UNL     1      -7.125  -4.231  21.143  0.00  0.00    +0.000 OA
ATOM     28  C   UNL     1      -8.152  -3.593  20.914  0.00  0.00    +0.000 C 
ATOM     29  N   UNL     1      -9.083  -3.995  19.978  0.00  0.00    +0.000 N 
ATOM     30  H   UNL     1      -9.867  -3.425  19.664  0.00  0.00    +0.000 HD
BRANCH  28  31
ATOM     31  C   UNL     1      -8.430  -2.323  21.636  0.00  0.00    +0.000 A 
ATOM     32  C   UNL     1      -7.546  -1.942  22.673  0.00  0.00    +0.000 A 
ATOM     33  C   UNL     1      -7.772  -0.781  23.420  0.00  0.00    +0.000 A 
ATOM     34  C   UNL     1      -8.894  -0.039  23.123  0.00  0.00    +0.000 A 
ATOM     35  C   UNL     1      -9.762  -0.409  22.120  0.00  0.00    +0.000 A 
ATOM     36  C   UNL     1      -9.559  -1.541  21.353  0.00  0.00    +0.000 A 
ATOM     37  O   UNL     1     -10.813   0.446  22.008  0.00  0.00    +0.000 OA
ATOM     38  C   UNL     1     -10.536   1.364  23.088  0.00  0.00    +0.000 C 
ATOM     39  O   UNL     1      -9.289   1.095  23.759  0.00  0.00    +0.000 OA
ATOM     40  H   UNL     1      -6.679  -2.561  22.899  0.00  0.00    +0.000 HD
ATOM     41  H   UNL     1      -7.099  -0.483  24.216  0.00  0.00    +0.000 HD
ATOM     42  H   UNL     1     -10.284  -1.814  20.596  0.00  0.00    +0.000 HD
ATOM     43  H   UNL     1     -11.350   1.299  23.821  0.00  0.00    +0.000 HD
ATOM     44  H   UNL     1     -10.508   2.384  22.686  0.00  0.00    +0.000 HD
ENDBRANCH  28  31
ENDBRANCH   1  29
TORSDOF 3
ENDMDL
MODEL 2
REMARK VINA RESULT:   -11.896      0.787      1.367
REMARK INTER + INTRA:         -14.354
REMARK INTER:                 -13.987
REMARK INTRA:                  -0.367
REMARK UNBOUND:                -0.372
REMARK  Name = 
REMARK  3 active torsions:
REMARK  status: ('A' for Active; 'I' for Inactive)
REMARK    1  A    between atoms: C_2  and  C_20
REMARK    2  A    between atoms: N_3  and  N_4
REMARK    3  A    between atoms: C_5  and  C_7
REMARK                            x       y       z     vdW  Elec       q    Type
REMARK                         _______ _______ _______ _____ _____    ______ ____
ROOT
ATOM      1  N   UNL     1      -9.088  -4.738  19.368  0.00  0.00    +0.000 N 
ATOM      2  C   UNL     1     -10.023  -5.251  18.487  0.00  0.00    +0.000 C 
ATOM      3  O   UNL     1     -11.081  -4.649  18.288  0.00  0.00    +0.000 OA
ATOM      4  H   UNL     1      -8.202  -5.195  19.574  0.00  0.00    +0.000 HD
ENDROOT
BRANCH   2   5
ATOM      5  C   UNL     1      -9.690  -6.504  17.818  0.00  0.00    +0.000 A 
ATOM      6  C   UNL     1      -9.441  -6.658  16.465  0.00  0.00    +0.000 A 
ATOM      7  C   UNL     1      -9.135  -8.002  16.112  0.00  0.00    +0.000 A 
ATOM      8  C   UNL     1      -9.178  -8.849  17.206  0.00  0.00    +0.000 A 
ATOM      9  S   UNL     1      -9.563  -8.007  18.637  0.00  0.00    +0.000 S 
ATOM     10  C   UNL     1      -8.930 -10.299  17.098  0.00  0.00    +0.000 A 
ATOM     11  C   UNL     1      -8.675 -11.134  18.191  0.00  0.00    +0.000 A 
ATOM     12  C   UNL     1      -8.417 -12.495  17.996  0.00  0.00    +0.000 A 
ATOM     13  C   UNL     1      -8.417 -13.038  16.712  0.00  0.00    +0.000 A 
ATOM     14  C   UNL     1      -8.676 -12.224  15.611  0.00  0.00    +0.000 A 
ATOM     15  C   UNL     1      -8.919 -10.855  15.792  0.00  0.00    +0.000 A 
ATOM     16  C   UNL     1      -9.251  -9.985  14.589  0.00  0.00    +0.000 C 
ATOM     17  C   UNL     1      -8.780  -8.531  14.755  0.00  0.00    +0.000 C 
ATOM     18  H   UNL     1      -9.470  -5.828  15.765  0.00  0.00    +0.000 HD
ATOM     19  H   UNL     1      -8.662 -10.743  19.205  0.00  0.00    +0.000 HD
ATOM     20  H   UNL     1      -8.214 -13.134  18.851  0.00  0.00    +0.000 HD
ATOM     21  H   UNL     1      -8.219 -14.097  16.569  0.00  0.00    +0.000 HD
ATOM     22  H   UNL     1      -8.687 -12.660  14.616  0.00  0.00    +0.000 HD
ATOM     23  H   UNL     1     -10.339 -10.008  14.454  0.00  0.00    +0.000 HD
ATOM     24  H   UNL     1      -8.798 -10.400  13.681  0.00  0.00    +0.000 HD
ATOM     25  H   UNL     1      -9.212  -7.906  13.966  0.00  0.00    +0.000 HD
ATOM     26  H   UNL     1      -7.688  -8.487  14.648  0.00  0.00    +0.000 HD
ENDBRANCH   2   5
BRANCH   1  29
ATOM     27  O   UNL     1      -7.752  -3.980  21.613  0.00  0.00    +0.000 OA
ATOM     28  C   UNL     1      -8.651  -3.254  21.194  0.00  0.00    +0.000 C 
ATOM     29  N   UNL     1      -9.387  -3.556  20.066  0.00  0.00    +0.000 N 
ATOM     30  H   UNL     1     -10.037  -2.916  19.613  0.00  0.00    +0.000 HD
BRANCH  28  31
ATOM     31  C   UNL     1      -8.978  -1.979  21.887  0.00  0.00    +0.000 A 
ATOM     32  C   UNL     1      -9.833  -1.065  21.227  0.00  0.00    +0.000 A 
ATOM     33  C   UNL     1     -10.148   0.170  21.803  0.00  0.00    +0.000 A 
ATOM     34  C   UNL     1      -9.579   0.469  23.021  0.00  0.00    +0.000 A 
ATOM     35  C   UNL     1      -8.740  -0.413  23.664  0.00  0.00    +0.000 A 
ATOM     36  C   UNL     1      -8.422  -1.647  23.131  0.00  0.00    +0.000 A 
ATOM     37  O   UNL     1      -8.271   0.087  24.839  0.00  0.00    +0.000 OA
ATOM     38  C   UNL     1      -8.867   1.402  24.835  0.00  0.00    +0.000 C 
ATOM     39  O   UNL     1      -9.745   1.627  23.713  0.00  0.00    +0.000 OA
ATOM     40  H   UNL     1     -10.250  -1.321  20.254  0.00  0.00    +0.000 HD
ATOM     41  H   UNL     1     -10.803   0.875  21.303  0.00  0.00    +0.000 HD
ATOM     42  H   UNL     1      -7.731  -2.298  23.654  0.00  0.00    +0.000 HD
ATOM     43  H   UNL     1      -8.066   2.150  24.808  0.00  0.00    +0.000 HD
ATOM     44  H   UNL     1      -9.438   1.535  25.762  0.00  0.00    +0.000 HD
ENDBRANCH  28  31
ENDBRANCH   1  29
TORSDOF 3
ENDMDL
MODEL 3
REMARK VINA RESULT:   -11.578      2.105      2.604
REMARK INTER + INTRA:         -13.980
REMARK INTER:                 -13.691
REMARK INTRA:                  -0.289
REMARK UNBOUND:                -0.372
REMARK  Name = 
REMARK  3 active torsions:
REMARK  status: ('A' for Active; 'I' for Inactive)
REMARK    1  A    between atoms: C_2  and  C_20
REMARK    2  A    between atoms: N_3  and  N_4
REMARK    3  A    between atoms: C_5  and  C_7
REMARK                            x       y       z     vdW  Elec       q    Type
REMARK                         _______ _______ _______ _____ _____    ______ ____
ROOT
ATOM      1  N   UNL     1     -11.021  -5.226  18.514  0.00  0.00    +0.000 N 
ATOM      2  C   UNL     1      -9.758  -5.782  18.618  0.00  0.00    +0.000 C 
ATOM      3  O   UNL     1      -8.896  -5.233  19.310  0.00  0.00    +0.000 OA
ATOM      4  H   UNL     1     -11.767  -5.633  17.954  0.00  0.00    +0.000 HD
ENDROOT
BRANCH   2   5
ATOM      5  C   UNL     1      -9.515  -7.024  17.893  0.00  0.00    +0.000 A 
ATOM      6  C   UNL     1      -9.359  -7.144  16.523  0.00  0.00    +0.000 A 
ATOM      7  C   UNL     1      -9.127  -8.487  16.112  0.00  0.00    +0.000 A 
ATOM      8  C   UNL     1      -9.133  -9.366  17.182  0.00  0.00    +0.000 A 
ATOM      9  S   UNL     1      -9.394  -8.556  18.658  0.00  0.00    +0.000 S 
ATOM     10  C   UNL     1      -8.947 -10.819  17.016  0.00  0.00    +0.000 A 
ATOM     11  C   UNL     1      -8.655 -11.697  18.065  0.00  0.00    +0.000 A 
ATOM     12  C   UNL     1      -8.462 -13.060  17.814  0.00  0.00    +0.000 A 
ATOM     13  C   UNL     1      -8.564 -13.561  16.518  0.00  0.00    +0.000 A 
ATOM     14  C   UNL     1      -8.862 -12.704  15.460  0.00  0.00    +0.000 A 
ATOM     15  C   UNL     1      -9.040 -11.334  15.696  0.00  0.00    +0.000 A 
ATOM     16  C   UNL     1      -9.415 -10.416  14.543  0.00  0.00    +0.000 C 
ATOM     17  C   UNL     1      -8.880  -8.985  14.721  0.00  0.00    +0.000 C 
ATOM     18  H   UNL     1      -9.401  -6.293  15.851  0.00  0.00    +0.000 HD
ATOM     19  H   UNL     1      -8.563 -11.339  19.087  0.00  0.00    +0.000 HD
ATOM     20  H   UNL     1      -8.229 -13.732  18.636  0.00  0.00    +0.000 HD
ATOM     21  H   UNL     1      -8.416 -14.622  16.332  0.00  0.00    +0.000 HD
ATOM     22  H   UNL     1      -8.952 -13.109  14.455  0.00  0.00    +0.000 HD
ATOM     23  H   UNL     1     -10.510 -10.395  14.478  0.00  0.00    +0.000 HD
ATOM     24  H   UNL     1      -9.036 -10.818  13.596  0.00  0.00    +0.000 HD
ATOM     25  H   UNL     1      -9.337  -8.321  13.979  0.00  0.00    +0.000 HD
ATOM     26  H   UNL     1      -7.795  -8.977  14.544  0.00  0.00    +0.000 HD
ENDBRANCH   2   5
BRANCH   1  29
ATOM     27  O   UNL     1     -10.519  -2.812  17.364  0.00  0.00    +0.000 OA
ATOM     28  C   UNL     1     -10.999  -2.833  18.496  0.00  0.00    +0.000 C 
ATOM     29  N   UNL     1     -11.284  -4.008  19.162  0.00  0.00    +0.000 N 
ATOM     30  H   UNL     1     -11.808  -4.064  20.034  0.00  0.00    +0.000 HD
BRANCH  28  31
ATOM     31  C   UNL     1     -11.320  -1.565  19.205  0.00  0.00    +0.000 A 
ATOM     32  C   UNL     1     -11.374  -0.375  18.442  0.00  0.00    +0.000 A 
ATOM     33  C   UNL     1     -11.629   0.859  19.052  0.00  0.00    +0.000 A 
ATOM     34  C   UNL     1     -11.803   0.872  20.418  0.00  0.00    +0.000 A 
ATOM     35  C   UNL     1     -11.743  -0.283  21.166  0.00  0.00    +0.000 A 
ATOM     36  C   UNL     1     -11.509  -1.518  20.594  0.00  0.00    +0.000 A 
ATOM     37  O   UNL     1     -11.918  -0.045  22.494  0.00  0.00    +0.000 OA
ATOM     38  C   UNL     1     -12.040   1.394  22.501  0.00  0.00    +0.000 C 
ATOM     39  O   UNL     1     -12.028   1.974  21.180  0.00  0.00    +0.000 OA
ATOM     40  H   UNL     1     -11.211  -0.414  17.366  0.00  0.00    +0.000 HD
ATOM     41  H   UNL     1     -11.673   1.775  18.473  0.00  0.00    +0.000 HD
ATOM     42  H   UNL     1     -11.437  -2.398  21.223  0.00  0.00    +0.000 HD
ATOM     43  H   UNL     1     -11.206   1.814  23.076  0.00  0.00    +0.000 HD
ATOM     44  H   UNL     1     -12.980   1.667  22.997  0.00  0.00    +0.000 HD
ENDBRANCH  28  31
ENDBRANCH   1  29
TORSDOF 3
ENDMDL
MODEL 4
REMARK VINA RESULT:   -11.502      3.214     10.905
REMARK INTER + INTRA:         -13.891
REMARK INTER:                 -13.482
REMARK INTRA:                  -0.409
REMARK UNBOUND:                -0.372
REMARK  Name = 
REMARK  3 active torsions:
REMARK  status: ('A' for Active; 'I' for Inactive)
REMARK    1  A    between atoms: C_2  and  C_20
REMARK    2  A    between atoms: N_3  and  N_4
REMARK    3  A    between atoms: C_5  and  C_7
REMARK                            x       y       z     vdW  Elec       q    Type
REMARK                         _______ _______ _______ _____ _____    ______ ____
ROOT
ATOM      1  N   UNL     1      -8.992  -7.059  18.584  0.00  0.00    +0.000 N 
ATOM      2  C   UNL     1      -7.960  -6.137  18.571  0.00  0.00    +0.000 C 
ATOM      3  O   UNL     1      -7.016  -6.277  17.789  0.00  0.00    +0.000 OA
ATOM      4  H   UNL     1      -9.791  -6.996  19.210  0.00  0.00    +0.000 HD
ENDROOT
BRANCH   2   5
ATOM      5  C   UNL     1      -8.057  -5.017  19.499  0.00  0.00    +0.000 A 
ATOM      6  C   UNL     1      -7.265  -4.821  20.618  0.00  0.00    +0.000 A 
ATOM      7  C   UNL     1      -7.594  -3.630  21.323  0.00  0.00    +0.000 A 
ATOM      8  C   UNL     1      -8.649  -2.953  20.735  0.00  0.00    +0.000 A 
ATOM      9  S   UNL     1      -9.205  -3.751  19.335  0.00  0.00    +0.000 S 
ATOM     10  C   UNL     1      -9.201  -1.705  21.294  0.00  0.00    +0.000 A 
ATOM     11  C   UNL     1     -10.051  -0.841  20.595  0.00  0.00    +0.000 A 
ATOM     12  C   UNL     1     -10.504   0.341  21.190  0.00  0.00    +0.000 A 
ATOM     13  C   UNL     1     -10.120   0.670  22.489  0.00  0.00    +0.000 A 
ATOM     14  C   UNL     1      -9.281  -0.181  23.205  0.00  0.00    +0.000 A 
ATOM     15  C   UNL     1      -8.806  -1.360  22.613  0.00  0.00    +0.000 A 
ATOM     16  C   UNL     1      -7.931  -2.306  23.420  0.00  0.00    +0.000 C 
ATOM     17  C   UNL     1      -6.930  -3.083  22.550  0.00  0.00    +0.000 C 
ATOM     18  H   UNL     1      -6.474  -5.508  20.903  0.00  0.00    +0.000 HD
ATOM     19  H   UNL     1     -10.365  -1.064  19.579  0.00  0.00    +0.000 HD
ATOM     20  H   UNL     1     -11.159   1.008  20.636  0.00  0.00    +0.000 HD
ATOM     21  H   UNL     1     -10.480   1.589  22.946  0.00  0.00    +0.000 HD
ATOM     22  H   UNL     1      -8.999   0.080  24.222  0.00  0.00    +0.000 HD
ATOM     23  H   UNL     1      -8.595  -3.011  23.938  0.00  0.00    +0.000 HD
ATOM     24  H   UNL     1      -7.376  -1.753  24.187  0.00  0.00    +0.000 HD
ATOM     25  H   UNL     1      -6.469  -3.885  23.137  0.00  0.00    +0.000 HD
ATOM     26  H   UNL     1      -6.125  -2.408  22.229  0.00  0.00    +0.000 HD
ENDBRANCH   2   5
BRANCH   1  29
ATOM     27  O   UNL     1      -8.805  -9.605  19.522  0.00  0.00    +0.000 OA
ATOM     28  C   UNL     1      -8.828  -9.430  18.305  0.00  0.00    +0.000 C 
ATOM     29  N   UNL     1      -8.918  -8.176  17.735  0.00  0.00    +0.000 N 
ATOM     30  H   UNL     1      -9.081  -8.003  16.745  0.00  0.00    +0.000 HD
BRANCH  28  31
ATOM     31  C   UNL     1      -8.782 -10.588  17.373  0.00  0.00    +0.000 A 
ATOM     32  C   UNL     1      -8.918 -10.332  15.988  0.00  0.00    +0.000 A 
ATOM     33  C   UNL     1      -8.926 -11.379  15.060  0.00  0.00    +0.000 A 
ATOM     34  C   UNL     1      -8.818 -12.663  15.546  0.00  0.00    +0.000 A 
ATOM     35  C   UNL     1      -8.694 -12.919  16.893  0.00  0.00    +0.000 A 
ATOM     36  C   UNL     1      -8.666 -11.908  17.834  0.00  0.00    +0.000 A 
ATOM     37  O   UNL     1      -8.625 -14.251  17.159  0.00  0.00    +0.000 OA
ATOM     38  C   UNL     1      -8.774 -14.804  15.833  0.00  0.00    +0.000 C 
ATOM     39  O   UNL     1      -8.838 -13.799  14.800  0.00  0.00    +0.000 OA
ATOM     40  H   UNL     1      -9.024  -9.306  15.636  0.00  0.00    +0.000 HD
ATOM     41  H   UNL     1      -9.030 -11.189  13.997  0.00  0.00    +0.000 HD
ATOM     42  H   UNL     1      -8.600 -12.154  18.887  0.00  0.00    +0.000 HD
ATOM     43  H   UNL     1      -9.697 -15.396  15.803  0.00  0.00    +0.000 HD
ATOM     44  H   UNL     1      -7.925 -15.467  15.629  0.00  0.00    +0.000 HD
ENDBRANCH  28  31
ENDBRANCH   1  29
TORSDOF 3
ENDMDL
MODEL 5
REMARK VINA RESULT:   -10.898      1.488      2.269
REMARK INTER + INTRA:         -13.181
REMARK INTER:                 -12.812
REMARK INTRA:                  -0.369
REMARK UNBOUND:                -0.372
REMARK  Name = 
REMARK  3 active torsions:
REMARK  status: ('A' for Active; 'I' for Inactive)
REMARK    1  A    between atoms: C_2  and  C_20
REMARK    2  A    between atoms: N_3  and  N_4
REMARK    3  A    between atoms: C_5  and  C_7
REMARK                            x       y       z     vdW  Elec       q    Type
REMARK                         _______ _______ _______ _____ _____    ______ ____
ROOT
ATOM      1  N   UNL     1      -9.209  -3.696  20.102  0.00  0.00    +0.000 N 
ATOM      2  C   UNL     1      -8.334  -4.756  20.259  0.00  0.00    +0.000 C 
ATOM      3  O   UNL     1      -7.463  -4.714  21.132  0.00  0.00    +0.000 OA
ATOM      4  H   UNL     1      -9.942  -3.675  19.396  0.00  0.00    +0.000 HD
ENDROOT
BRANCH   2   5
ATOM      5  C   UNL     1      -8.502  -5.896  19.366  0.00  0.00    +0.000 A 
ATOM      6  C   UNL     1      -8.734  -5.830  18.002  0.00  0.00    +0.000 A 
ATOM      7  C   UNL     1      -8.846  -7.115  17.401  0.00  0.00    +0.000 A 
ATOM      8  C   UNL     1      -8.718  -8.135  18.328  0.00  0.00    +0.000 A 
ATOM      9  S   UNL     1      -8.442  -7.528  19.896  0.00  0.00    +0.000 S 
ATOM     10  C   UNL     1      -8.829  -9.559  17.961  0.00  0.00    +0.000 A 
ATOM     11  C   UNL     1      -8.423 -10.615  18.784  0.00  0.00    +0.000 A 
ATOM     12  C   UNL     1      -8.533 -11.938  18.343  0.00  0.00    +0.000 A 
ATOM     13  C   UNL     1      -9.055 -12.222  17.083  0.00  0.00    +0.000 A 
ATOM     14  C   UNL     1      -9.472 -11.185  16.251  0.00  0.00    +0.000 A 
ATOM     15  C   UNL     1      -9.350  -9.854  16.674  0.00  0.00    +0.000 A 
ATOM     16  C   UNL     1      -9.855  -8.733  15.779  0.00  0.00    +0.000 C 
ATOM     17  C   UNL     1      -9.060  -7.427  15.951  0.00  0.00    +0.000 C 
ATOM     18  H   UNL     1      -8.807  -4.889  17.466  0.00  0.00    +0.000 HD
ATOM     19  H   UNL     1      -8.007 -10.429  19.770  0.00  0.00    +0.000 HD
ATOM     20  H   UNL     1      -8.210 -12.751  18.989  0.00  0.00    +0.000 HD
ATOM     21  H   UNL     1      -9.141 -13.254  16.749  0.00  0.00    +0.000 HD
ATOM     22  H   UNL     1      -9.890 -11.419  15.275  0.00  0.00    +0.000 HD
ATOM     23  H   UNL     1     -10.909  -8.558  16.029  0.00  0.00    +0.000 HD
ATOM     24  H   UNL     1      -9.812  -9.035  14.726  0.00  0.00    +0.000 HD
ATOM     25  H   UNL     1      -9.578  -6.605  15.445  0.00  0.00    +0.000 HD
ATOM     26  H   UNL     1      -8.075  -7.535  15.477  0.00  0.00    +0.000 HD
ENDBRANCH   2   5
BRANCH   1  29
ATOM     27  O   UNL     1     -11.312  -2.165  20.898  0.00  0.00    +0.000 OA
ATOM     28  C   UNL     1     -10.183  -1.848  21.268  0.00  0.00    +0.000 C 
ATOM     29  N   UNL     1      -9.056  -2.560  20.913  0.00  0.00    +0.000 N 
ATOM     30  H   UNL     1      -8.131  -2.411  21.312  0.00  0.00    +0.000 HD
BRANCH  28  31
ATOM     31  C   UNL     1      -9.982  -0.668  22.152  0.00  0.00    +0.000 A 
ATOM     32  C   UNL     1      -9.096  -0.804  23.247  0.00  0.00    +0.000 A 
ATOM     33  C   UNL     1      -8.892   0.252  24.142  0.00  0.00    +0.000 A 
ATOM     34  C   UNL     1      -9.601   1.414  23.930  0.00  0.00    +0.000 A 
ATOM     35  C   UNL     1     -10.471   1.548  22.872  0.00  0.00    +0.000 A 
ATOM     36  C   UNL     1     -10.682   0.531  21.960  0.00  0.00    +0.000 A 
ATOM     37  O   UNL     1     -11.083   2.763  22.859  0.00  0.00    +0.000 OA
ATOM     38  C   UNL     1     -10.540   3.355  24.060  0.00  0.00    +0.000 C 
ATOM     39  O   UNL     1      -9.555   2.526  24.709  0.00  0.00    +0.000 OA
ATOM     40  H   UNL     1      -8.566  -1.743  23.401  0.00  0.00    +0.000 HD
ATOM     41  H   UNL     1      -8.214   0.155  24.983  0.00  0.00    +0.000 HD
ATOM     42  H   UNL     1     -11.400   0.667  21.160  0.00  0.00    +0.000 HD
ATOM     43  H   UNL     1     -11.362   3.539  24.762  0.00  0.00    +0.000 HD
ATOM     44  H   UNL     1     -10.078   4.316  23.802  0.00  0.00    +0.000 HD
ENDBRANCH  28  31
ENDBRANCH   1  29
TORSDOF 3
ENDMDL
MODEL 6
REMARK VINA RESULT:   -10.878      5.241     10.649
REMARK INTER + INTRA:         -13.157
REMARK INTER:                 -12.729
REMARK INTRA:                  -0.428
REMARK UNBOUND:                -0.372
REMARK  Name = 
REMARK  3 active torsions:
REMARK  status: ('A' for Active; 'I' for Inactive)
REMARK    1  A    between atoms: C_2  and  C_20
REMARK    2  A    between atoms: N_3  and  N_4
REMARK    3  A    between atoms: C_5  and  C_7
REMARK                            x       y       z     vdW  Elec       q    Type
REMARK                         _______ _______ _______ _____ _____    ______ ____
ROOT
ATOM      1  N   UNL     1     -10.983  -7.286  15.794  0.00  0.00    +0.000 N 
ATOM      2  C   UNL     1     -10.712  -6.221  16.636  0.00  0.00    +0.000 C 
ATOM      3  O   UNL     1     -10.123  -6.412  17.703  0.00  0.00    +0.000 OA
ATOM      4  H   UNL     1     -11.470  -7.187  14.906  0.00  0.00    +0.000 HD
ENDROOT
BRANCH   2   5
ATOM      5  C   UNL     1     -11.141  -4.899  16.196  0.00  0.00    +0.000 A 
ATOM      6  C   UNL     1     -11.317  -3.792  17.009  0.00  0.00    +0.000 A 
ATOM      7  C   UNL     1     -11.735  -2.640  16.286  0.00  0.00    +0.000 A 
ATOM      8  C   UNL     1     -11.890  -2.902  14.936  0.00  0.00    +0.000 A 
ATOM      9  S   UNL     1     -11.507  -4.520  14.562  0.00  0.00    +0.000 S 
ATOM     10  C   UNL     1     -12.347  -1.880  13.976  0.00  0.00    +0.000 A 
ATOM     11  C   UNL     1     -12.240  -2.005  12.587  0.00  0.00    +0.000 A 
ATOM     12  C   UNL     1     -12.669  -0.970  11.749  0.00  0.00    +0.000 A 
ATOM     13  C   UNL     1     -13.216   0.194  12.285  0.00  0.00    +0.000 A 
ATOM     14  C   UNL     1     -13.339   0.334  13.666  0.00  0.00    +0.000 A 
ATOM     15  C   UNL     1     -12.895  -0.687  14.518  0.00  0.00    +0.000 A 
ATOM     16  C   UNL     1     -13.080  -0.546  16.021  0.00  0.00    +0.000 C 
ATOM     17  C   UNL     1     -11.986  -1.266  16.828  0.00  0.00    +0.000 C 
ATOM     18  H   UNL     1     -11.138  -3.817  18.080  0.00  0.00    +0.000 HD
ATOM     19  H   UNL     1     -11.814  -2.896  12.135  0.00  0.00    +0.000 HD
ATOM     20  H   UNL     1     -12.576  -1.075  10.671  0.00  0.00    +0.000 HD
ATOM     21  H   UNL     1     -13.551   0.992  11.627  0.00  0.00    +0.000 HD
ATOM     22  H   UNL     1     -13.778   1.241  14.073  0.00  0.00    +0.000 HD
ATOM     23  H   UNL     1     -14.062  -0.965  16.275  0.00  0.00    +0.000 HD
ATOM     24  H   UNL     1     -13.089   0.512  16.307  0.00  0.00    +0.000 HD
ATOM     25  H   UNL     1     -12.268  -1.306  17.885  0.00  0.00    +0.000 HD
ATOM     26  H   UNL     1     -11.049  -0.696  16.760  0.00  0.00    +0.000 HD
ENDBRANCH   2   5
BRANCH   1  29
ATOM     27  O   UNL     1      -8.876  -8.628  14.721  0.00  0.00    +0.000 OA
ATOM     28  C   UNL     1      -9.537  -9.182  15.598  0.00  0.00    +0.000 C 
ATOM     29  N   UNL     1     -10.625  -8.582  16.199  0.00  0.00    +0.000 N 
ATOM     30  H   UNL     1     -11.106  -8.949  17.018  0.00  0.00    +0.000 HD
BRANCH  28  31
ATOM     31  C   UNL     1      -9.172 -10.543  16.074  0.00  0.00    +0.000 A 
ATOM     32  C   UNL     1      -8.853 -11.522  15.104  0.00  0.00    +0.000 A 
ATOM     33  C   UNL     1      -8.541 -12.833  15.481  0.00  0.00    +0.000 A 
ATOM     34  C   UNL     1      -8.580 -13.137  16.824  0.00  0.00    +0.000 A 
ATOM     35  C   UNL     1      -8.899 -12.191  17.771  0.00  0.00    +0.000 A 
ATOM     36  C   UNL     1      -9.195 -10.884  17.434  0.00  0.00    +0.000 A 
ATOM     37  O   UNL     1      -8.902 -12.704  19.031  0.00  0.00    +0.000 OA
ATOM     38  C   UNL     1      -8.602 -14.091  18.762  0.00  0.00    +0.000 C 
ATOM     39  O   UNL     1      -8.339 -14.358  17.370  0.00  0.00    +0.000 OA
ATOM     40  H   UNL     1      -8.852 -11.256  14.048  0.00  0.00    +0.000 HD
ATOM     41  H   UNL     1      -8.295 -13.588  14.743  0.00  0.00    +0.000 HD
ATOM     42  H   UNL     1      -9.473 -10.178  18.209  0.00  0.00    +0.000 HD
ATOM     43  H   UNL     1      -9.456 -14.702  19.081  0.00  0.00    +0.000 HD
ATOM     44  H   UNL     1      -7.724 -14.383  19.350  0.00  0.00    +0.000 HD
ENDBRANCH  28  31
ENDBRANCH   1  29
TORSDOF 3
ENDMDL
MODEL 7
REMARK VINA RESULT:   -10.820      1.788      3.135
REMARK INTER + INTRA:         -13.090
REMARK INTER:                 -12.744
REMARK INTRA:                  -0.345
REMARK UNBOUND:                -0.372
REMARK  Name = 
REMARK  3 active torsions:
REMARK  status: ('A' for Active; 'I' for Inactive)
REMARK    1  A    between atoms: C_2  and  C_20
REMARK    2  A    between atoms: N_3  and  N_4
REMARK    3  A    between atoms: C_5  and  C_7
REMARK                            x       y       z     vdW  Elec       q    Type
REMARK                         _______ _______ _______ _____ _____    ______ ____
ROOT
ATOM      1  N   UNL     1      -9.702  -4.130  19.544  0.00  0.00    +0.000 N 
ATOM      2  C   UNL     1      -8.555  -4.900  19.629  0.00  0.00    +0.000 C 
ATOM      3  O   UNL     1      -7.512  -4.409  20.069  0.00  0.00    +0.000 OA
ATOM      4  H   UNL     1     -10.586  -4.481  19.185  0.00  0.00    +0.000 HD
ENDROOT
BRANCH   2   5
ATOM      5  C   UNL     1      -8.650  -6.287  19.190  0.00  0.00    +0.000 A 
ATOM      6  C   UNL     1      -8.620  -7.401  20.012  0.00  0.00    +0.000 A 
ATOM      7  C   UNL     1      -8.743  -8.621  19.289  0.00  0.00    +0.000 A 
ATOM      8  C   UNL     1      -8.843  -8.408  17.925  0.00  0.00    +0.000 A 
ATOM      9  S   UNL     1      -8.810  -6.748  17.543  0.00  0.00    +0.000 S 
ATOM     10  C   UNL     1      -8.947  -9.515  16.955  0.00  0.00    +0.000 A 
ATOM     11  C   UNL     1      -9.339  -9.354  15.622  0.00  0.00    +0.000 A 
ATOM     12  C   UNL     1      -9.444 -10.464  14.777  0.00  0.00    +0.000 A 
ATOM     13  C   UNL     1      -9.153 -11.743  15.250  0.00  0.00    +0.000 A 
ATOM     14  C   UNL     1      -8.753 -11.922  16.572  0.00  0.00    +0.000 A 
ATOM     15  C   UNL     1      -8.662 -10.820  17.434  0.00  0.00    +0.000 A 
ATOM     16  C   UNL     1      -8.176 -11.021  18.861  0.00  0.00    +0.000 C 
ATOM     17  C   UNL     1      -8.786 -10.010  19.847  0.00  0.00    +0.000 C 
ATOM     18  H   UNL     1      -8.525  -7.330  21.091  0.00  0.00    +0.000 HD
ATOM     19  H   UNL     1      -9.579  -8.373  15.222  0.00  0.00    +0.000 HD
ATOM     20  H   UNL     1      -9.755 -10.329  13.744  0.00  0.00    +0.000 HD
ATOM     21  H   UNL     1      -9.233 -12.600  14.585  0.00  0.00    +0.000 HD
ATOM     22  H   UNL     1      -8.516 -12.922  16.927  0.00  0.00    +0.000 HD
ATOM     23  H   UNL     1      -7.084 -10.919  18.857  0.00  0.00    +0.000 HD
ATOM     24  H   UNL     1      -8.411 -12.035  19.206  0.00  0.00    +0.000 HD
ATOM     25  H   UNL     1      -8.263 -10.064  20.808  0.00  0.00    +0.000 HD
ATOM     26  H   UNL     1      -9.838 -10.271  20.032  0.00  0.00    +0.000 HD
ENDBRANCH   2   5
BRANCH   1  29
ATOM     27  O   UNL     1     -11.928  -2.622  19.953  0.00  0.00    +0.000 OA
ATOM     28  C   UNL     1     -10.827  -2.094  20.104  0.00  0.00    +0.000 C 
ATOM     29  N   UNL     1      -9.643  -2.777  19.917  0.00  0.00    +0.000 N 
ATOM     30  H   UNL     1      -8.724  -2.417  20.167  0.00  0.00    +0.000 HD
BRANCH  28  31
ATOM     31  C   UNL     1     -10.722  -0.672  20.527  0.00  0.00    +0.000 A 
ATOM     32  C   UNL     1     -10.729   0.321  19.520  0.00  0.00    +0.000 A 
ATOM     33  C   UNL     1     -10.592   1.676  19.844  0.00  0.00    +0.000 A 
ATOM     34  C   UNL     1     -10.429   2.000  21.173  0.00  0.00    +0.000 A 
ATOM     35  C   UNL     1     -10.413   1.037  22.156  0.00  0.00    +0.000 A 
ATOM     36  C   UNL     1     -10.562  -0.307  21.872  0.00  0.00    +0.000 A 
ATOM     37  O   UNL     1     -10.218   1.567  23.393  0.00  0.00    +0.000 OA
ATOM     38  C   UNL     1     -10.059   2.966  23.070  0.00  0.00    +0.000 C 
ATOM     39  O   UNL     1     -10.251   3.252  21.669  0.00  0.00    +0.000 OA
ATOM     40  H   UNL     1     -10.838   0.032  18.475  0.00  0.00    +0.000 HD
ATOM     41  H   UNL     1     -10.596   2.442  19.077  0.00  0.00    +0.000 HD
ATOM     42  H   UNL     1     -10.511  -1.036  22.672  0.00  0.00    +0.000 HD
ATOM     43  H   UNL     1      -9.047   3.279  23.356  0.00  0.00    +0.000 HD
ATOM     44  H   UNL     1     -10.783   3.548  23.652  0.00  0.00    +0.000 HD
ENDBRANCH  28  31
ENDBRANCH   1  29
TORSDOF 3
ENDMDL
MODEL 8
REMARK VINA RESULT:   -10.697      5.252      7.066
REMARK INTER + INTRA:         -12.945
REMARK INTER:                 -12.544
REMARK INTRA:                  -0.401
REMARK UNBOUND:                -0.372
REMARK  Name = 
REMARK  3 active torsions:
REMARK  status: ('A' for Active; 'I' for Inactive)
REMARK    1  A    between atoms: C_2  and  C_20
REMARK    2  A    between atoms: N_3  and  N_4
REMARK    3  A    between atoms: C_5  and  C_7
REMARK                            x       y       z     vdW  Elec       q    Type
REMARK                         _______ _______ _______ _____ _____    ______ ____
ROOT
ATOM      1  N   UNL     1     -11.445  -5.260  15.432  0.00  0.00    +0.000 N 
ATOM      2  C   UNL     1     -10.724  -5.245  16.613  0.00  0.00    +0.000 C 
ATOM      3  O   UNL     1     -10.486  -4.175  17.178  0.00  0.00    +0.000 OA
ATOM      4  H   UNL     1     -11.665  -6.113  14.922  0.00  0.00    +0.000 HD
ENDROOT
BRANCH   2   5
ATOM      5  C   UNL     1     -10.284  -6.532  17.141  0.00  0.00    +0.000 A 
ATOM      6  C   UNL     1     -10.022  -6.814  18.471  0.00  0.00    +0.000 A 
ATOM      7  C   UNL     1      -9.616  -8.163  18.676  0.00  0.00    +0.000 A 
ATOM      8  C   UNL     1      -9.558  -8.874  17.489  0.00  0.00    +0.000 A 
ATOM      9  S   UNL     1     -10.014  -7.913  16.158  0.00  0.00    +0.000 S 
ATOM     10  C   UNL     1      -9.133 -10.285  17.430  0.00  0.00    +0.000 A 
ATOM     11  C   UNL     1      -9.335 -11.119  16.325  0.00  0.00    +0.000 A 
ATOM     12  C   UNL     1      -8.930 -12.457  16.365  0.00  0.00    +0.000 A 
ATOM     13  C   UNL     1      -8.313 -12.975  17.502  0.00  0.00    +0.000 A 
ATOM     14  C   UNL     1      -8.096 -12.159  18.611  0.00  0.00    +0.000 A 
ATOM     15  C   UNL     1      -8.514 -10.821  18.590  0.00  0.00    +0.000 A 
ATOM     16  C   UNL     1      -8.227  -9.926  19.785  0.00  0.00    +0.000 C 
ATOM     17  C   UNL     1      -9.288  -8.828  19.978  0.00  0.00    +0.000 C 
ATOM     18  H   UNL     1     -10.130  -6.077  19.259  0.00  0.00    +0.000 HD
ATOM     19  H   UNL     1      -9.817 -10.749  15.424  0.00  0.00    +0.000 HD
ATOM     20  H   UNL     1      -9.097 -13.098  15.502  0.00  0.00    +0.000 HD
ATOM     21  H   UNL     1      -7.998 -14.016  17.524  0.00  0.00    +0.000 HD
ATOM     22  H   UNL     1      -7.603 -12.570  19.487  0.00  0.00    +0.000 HD
ATOM     23  H   UNL     1      -7.245  -9.465  19.625  0.00  0.00    +0.000 HD
ATOM     24  H   UNL     1      -8.167 -10.522  20.703  0.00  0.00    +0.000 HD
ATOM     25  H   UNL     1      -8.938  -8.097  20.715  0.00  0.00    +0.000 HD
ATOM     26  H   UNL     1     -10.209  -9.278  20.373  0.00  0.00    +0.000 HD
ENDBRANCH   2   5
BRANCH   1  29
ATOM     27  O   UNL     1     -10.714  -4.487  12.929  0.00  0.00    +0.000 OA
ATOM     28  C   UNL     1     -11.432  -3.736  13.588  0.00  0.00    +0.000 C 
ATOM     29  N   UNL     1     -11.852  -4.041  14.867  0.00  0.00    +0.000 N 
ATOM     30  H   UNL     1     -12.554  -3.515  15.383  0.00  0.00    +0.000 HD
BRANCH  28  31
ATOM     31  C   UNL     1     -11.908  -2.449  13.014  0.00  0.00    +0.000 A 
ATOM     32  C   UNL     1     -12.897  -2.500  12.003  0.00  0.00    +0.000 A 
ATOM     33  C   UNL     1     -13.360  -1.329  11.391  0.00  0.00    +0.000 A 
ATOM     34  C   UNL     1     -12.802  -0.136  11.792  0.00  0.00    +0.000 A 
ATOM     35  C   UNL     1     -11.833  -0.082  12.769  0.00  0.00    +0.000 A 
ATOM     36  C   UNL     1     -11.366  -1.217  13.405  0.00  0.00    +0.000 A 
ATOM     37  O   UNL     1     -11.402   1.188  12.997  0.00  0.00    +0.000 OA
ATOM     38  C   UNL     1     -12.171   1.918  12.016  0.00  0.00    +0.000 C 
ATOM     39  O   UNL     1     -13.103   1.091  11.290  0.00  0.00    +0.000 OA
ATOM     40  H   UNL     1     -13.304  -3.461  11.692  0.00  0.00    +0.000 HD
ATOM     41  H   UNL     1     -14.118  -1.361  10.616  0.00  0.00    +0.000 HD
ATOM     42  H   UNL     1     -10.579  -1.133  14.145  0.00  0.00    +0.000 HD
ATOM     43  H   UNL     1     -11.478   2.377  11.299  0.00  0.00    +0.000 HD
ATOM     44  H   UNL     1     -12.727   2.715  12.524  0.00  0.00    +0.000 HD
ENDBRANCH  28  31
ENDBRANCH   1  29
TORSDOF 3
ENDMDL
MODEL 9
REMARK VINA RESULT:   -10.696      3.542      4.439
REMARK INTER + INTRA:         -12.943
REMARK INTER:                 -12.572
REMARK INTRA:                  -0.371
REMARK UNBOUND:                -0.372
REMARK  Name = 
REMARK  3 active torsions:
REMARK  status: ('A' for Active; 'I' for Inactive)
REMARK    1  A    between atoms: C_2  and  C_20
REMARK    2  A    between atoms: N_3  and  N_4
REMARK    3  A    between atoms: C_5  and  C_7
REMARK                            x       y       z     vdW  Elec       q    Type
REMARK                         _______ _______ _______ _____ _____    ______ ____
ROOT
ATOM      1  N   UNL     1     -11.013  -6.686  16.178  0.00  0.00    +0.000 N 
ATOM      2  C   UNL     1      -9.734  -7.076  15.819  0.00  0.00    +0.000 C 
ATOM      3  O   UNL     1      -8.911  -6.233  15.454  0.00  0.00    +0.000 OA
ATOM      4  H   UNL     1     -11.733  -7.338  16.481  0.00  0.00    +0.000 HD
ENDROOT
BRANCH   2   5
ATOM      5  C   UNL     1      -9.423  -8.498  15.905  0.00  0.00    +0.000 A 
ATOM      6  C   UNL     1      -9.001  -9.300  14.859  0.00  0.00    +0.000 A 
ATOM      7  C   UNL     1      -8.770 -10.647  15.257  0.00  0.00    +0.000 A 
ATOM      8  C   UNL     1      -9.043 -10.846  16.600  0.00  0.00    +0.000 A 
ATOM      9  S   UNL     1      -9.549  -9.406  17.357  0.00  0.00    +0.000 S 
ATOM     10  C   UNL     1      -8.913 -12.163  17.249  0.00  0.00    +0.000 A 
ATOM     11  C   UNL     1      -8.892 -12.356  18.635  0.00  0.00    +0.000 A 
ATOM     12  C   UNL     1      -8.731 -13.639  19.168  0.00  0.00    +0.000 A 
ATOM     13  C   UNL     1      -8.599 -14.743  18.327  0.00  0.00    +0.000 A 
ATOM     14  C   UNL     1      -8.626 -14.573  16.945  0.00  0.00    +0.000 A 
ATOM     15  C   UNL     1      -8.768 -13.290  16.398  0.00  0.00    +0.000 A 
ATOM     16  C   UNL     1      -8.847 -13.121  14.889  0.00  0.00    +0.000 C 
ATOM     17  C   UNL     1      -8.276 -11.777  14.406  0.00  0.00    +0.000 C 
ATOM     18  H   UNL     1      -8.856  -8.921  13.852  0.00  0.00    +0.000 HD
ATOM     19  H   UNL     1      -8.987 -11.517  19.319  0.00  0.00    +0.000 HD
ATOM     20  H   UNL     1      -8.710 -13.777  20.246  0.00  0.00    +0.000 HD
ATOM     21  H   UNL     1      -8.478 -15.737  18.750  0.00  0.00    +0.000 HD
ATOM     22  H   UNL     1      -8.534 -15.442  16.299  0.00  0.00    +0.000 HD
ATOM     23  H   UNL     1      -9.903 -13.197  14.601  0.00  0.00    +0.000 HD
ATOM     24  H   UNL     1      -8.309 -13.933  14.385  0.00  0.00    +0.000 HD
ATOM     25  H   UNL     1      -8.534 -11.618  13.354  0.00  0.00    +0.000 HD
ATOM     26  H   UNL     1      -7.179 -11.801  14.475  0.00  0.00    +0.000 HD
ENDBRANCH   2   5
BRANCH   1  29
ATOM     27  O   UNL     1     -10.873  -4.959  18.274  0.00  0.00    +0.000 OA
ATOM     28  C   UNL     1     -11.260  -4.531  17.188  0.00  0.00    +0.000 C 
ATOM     29  N   UNL     1     -11.367  -5.331  16.069  0.00  0.00    +0.000 N 
ATOM     30  H   UNL     1     -11.547  -4.985  15.128  0.00  0.00    +0.000 HD
BRANCH  28  31
ATOM     31  C   UNL     1     -11.616  -3.097  17.024  0.00  0.00    +0.000 A 
ATOM     32  C   UNL     1     -12.150  -2.683  15.781  0.00  0.00    +0.000 A 
ATOM     33  C   UNL     1     -12.468  -1.341  15.545  0.00  0.00    +0.000 A 
ATOM     34  C   UNL     1     -12.221  -0.440  16.557  0.00  0.00    +0.000 A 
ATOM     35  C   UNL     1     -11.694  -0.835  17.765  0.00  0.00    +0.000 A 
ATOM     36  C   UNL     1     -11.384  -2.154  18.037  0.00  0.00    +0.000 A 
ATOM     37  O   UNL     1     -11.508   0.213  18.613  0.00  0.00    +0.000 OA
ATOM     38  C   UNL     1     -11.928   1.316  17.781  0.00  0.00    +0.000 C 
ATOM     39  O   UNL     1     -12.437   0.900  16.497  0.00  0.00    +0.000 OA
ATOM     40  H   UNL     1     -12.314  -3.416  14.992  0.00  0.00    +0.000 HD
ATOM     41  H   UNL     1     -12.878  -1.018  14.595  0.00  0.00    +0.000 HD
ATOM     42  H   UNL     1     -10.940  -2.418  18.989  0.00  0.00    +0.000 HD
ATOM     43  H   UNL     1     -11.069   1.979  17.619  0.00  0.00    +0.000 HD
ATOM     44  H   UNL     1     -12.710   1.878  18.306  0.00  0.00    +0.000 HD
ENDBRANCH  28  31
ENDBRANCH   1  29
TORSDOF 3
ENDMDL
