
 OpenBabel01112423033D

 32 33  0  0  0  0  0  0  0  0999 V2000
    0.9880   -0.1560    0.0658 N   0  3  0  0  0  0  0  0  0  0  0  0
    2.3256   -0.0849   -0.0810 C   0  0  0  0  0  0  0  0  0  0  0  0
    2.8836    0.8114   -0.9230 N   0  0  0  0  0  0  0  0  0  0  0  0
    2.2998    2.0292   -1.3568 C   0  0  0  0  0  0  0  0  0  0  0  0
    1.4360    2.7621   -0.5435 C   0  0  0  0  0  0  0  0  0  0  0  0
    0.8893    3.9562   -1.0136 C   0  0  0  0  0  0  0  0  0  0  0  0
   -0.1785    4.8454   -0.0020 Cl  0  0  0  0  0  0  0  0  0  0  0  0
    1.1958    4.4261   -2.2858 C   0  0  0  0  0  0  0  0  0  0  0  0
    2.0903    3.7082   -3.0748 C   0  0  0  0  0  0  0  0  0  0  0  0
    2.4739    4.2688   -4.6538 Cl  0  0  0  0  0  0  0  0  0  0  0  0
    2.6642    2.5247   -2.6074 C   0  0  0  0  0  0  0  0  0  0  0  0
    3.0839   -0.9801    0.5927 N   0  0  0  0  0  0  0  0  0  0  0  0
    4.4884   -1.0266    0.6399 C   0  0  0  0  0  0  0  0  0  0  0  0
    5.1723   -0.1349    0.0165 N   0  0  0  0  0  0  0  0  0  0  0  0
    6.5545   -0.1904    0.1461 C   0  0  0  0  0  0  0  0  0  0  0  0
    7.3744    0.9549   -0.4319 C   0  0  0  0  0  0  0  0  0  0  0  0
    6.5837    1.8762   -1.0437 F   0  0  0  0  0  0  0  0  0  0  0  0
    8.0693    1.6040    0.5333 F   0  0  0  0  0  0  0  0  0  0  0  0
    8.2646    0.5184   -1.3544 F   0  0  0  0  0  0  0  0  0  0  0  0
    7.1816   -1.1959    0.7834 C   0  0  0  0  0  0  0  0  0  0  0  0
    6.3572   -2.2455    1.3932 C   0  0  0  0  0  0  0  0  0  0  0  0
    6.8537   -3.2462    1.8898 O   0  0  0  0  0  0  0  0  0  0  0  0
    5.0132   -2.0406    1.3588 N   0  0  0  0  0  0  0  0  0  0  0  0
    0.3820    0.3801   -0.5455 H   0  0  0  0  0  0  0  0  0  0  0  0
    0.5326   -0.8017    0.6969 H   0  0  0  0  0  0  0  0  0  0  0  0
    3.8383    0.6090   -1.2278 H   0  0  0  0  0  0  0  0  0  0  0  0
    1.2176    2.4479    0.4726 H   0  0  0  0  0  0  0  0  0  0  0  0
    0.7501    5.3468   -2.6560 H   0  0  0  0  0  0  0  0  0  0  0  0
    3.3625    1.9814   -3.2390 H   0  0  0  0  0  0  0  0  0  0  0  0
    2.5849   -1.6600    1.1444 H   0  0  0  0  0  0  0  0  0  0  0  0
    8.2562   -1.2697    0.8877 H   0  0  0  0  0  0  0  0  0  0  0  0
    4.4651   -2.7655    1.7946 H   0  0  0  0  0  0  0  0  0  0  0  0
  1  2  2  0  0  0  0
  1 24  1  0  0  0  0
  1 25  1  0  0  0  0
  2  3  1  0  0  0  0
  2 12  1  0  0  0  0
  3  4  1  0  0  0  0
  3 26  1  0  0  0  0
  4  5  1  0  0  0  0
  4 11  2  0  0  0  0
  5  6  2  0  0  0  0
  5 27  1  0  0  0  0
  6  7  1  0  0  0  0
  6  8  1  0  0  0  0
  8  9  2  0  0  0  0
  8 28  1  0  0  0  0
  9 10  1  0  0  0  0
  9 11  1  0  0  0  0
 11 29  1  0  0  0  0
 12 13  1  0  0  0  0
 12 30  1  0  0  0  0
 13 14  2  0  0  0  0
 13 23  1  0  0  0  0
 14 15  1  0  0  0  0
 15 16  1  0  0  0  0
 15 20  2  0  0  0  0
 16 17  1  0  0  0  0
 16 18  1  0  0  0  0
 16 19  1  0  0  0  0
 20 21  1  0  0  0  0
 20 31  1  0  0  0  0
 21 22  2  0  0  0  0
 21 23  1  0  0  0  0
 23 32  1  0  0  0  0
M  CHG  1   1   1
M  END
$$$$
