MODEL 1
REMARK VINA RESULT:    -6.377      0.000      0.000
REMARK INTER + INTRA:         -10.865
REMARK INTER:                 -10.104
REMARK INTRA:                  -0.761
REMARK UNBOUND:                -0.761
REMARK  Name = 
REMARK  13 active torsions:
REMARK  status: ('A' for Active; 'I' for Inactive)
REMARK    1  A    between atoms: C_1  and  C_2
REMARK    2  A    between atoms: C_2  and  C_3
REMARK    3  A    between atoms: C_2  and  C_4
REMARK    4  A    between atoms: C_2  and  O_5
REMARK    5  A    between atoms: O_5  and  C_6
REMARK    6  A    between atoms: N_8  and  C_9
REMARK    7  A    between atoms: C_13  and  N_14
REMARK    8  A    between atoms: N_14  and  C_15
REMARK    9  A    between atoms: C_15  and  C_16
REMARK   10  A    between atoms: C_16  and  C_17
REMARK   11  A    between atoms: C_16  and  O_18
REMARK   12  A    between atoms: C_16  and  C_19
REMARK   13  A    between atoms: C_19  and  O_20
REMARK                            x       y       z     vdW  Elec       q    Type
REMARK                         _______ _______ _______ _____ _____    ______ ____
ROOT
ATOM      1  C   UNL     1      -7.354  -3.687  22.495  0.00  0.00    +0.000 C 
ATOM      2  C   UNL     1      -6.688  -2.295  22.517  0.00  0.00    +0.000 C 
ATOM      3  C   UNL     1      -7.686  -1.164  22.749  0.00  0.00    +0.000 C 
ATOM      4  C   UNL     1      -8.485  -1.398  24.031  0.00  0.00    +0.000 C 
ATOM      5  C   UNL     1      -9.166  -2.777  24.069  0.00  0.00    +0.000 C 
ATOM      6  C   UNL     1      -8.129  -3.886  23.810  0.00  0.00    +0.000 C 
ATOM      7  H   UNL     1      -6.561  -4.444  22.430  0.00  0.00    +0.000 HD
ATOM      8  H   UNL     1      -6.111  -2.091  21.613  0.00  0.00    +0.000 HD
ATOM      9  H   UNL     1      -5.952  -2.278  23.335  0.00  0.00    +0.000 HD
ATOM     10  H   UNL     1      -8.358  -1.074  21.888  0.00  0.00    +0.000 HD
ATOM     11  H   UNL     1      -7.148  -0.211  22.820  0.00  0.00    +0.000 HD
ATOM     12  H   UNL     1      -9.215  -0.592  24.168  0.00  0.00    +0.000 HD
ATOM     13  H   UNL     1      -7.790  -1.330  24.882  0.00  0.00    +0.000 HD
ATOM     14  H   UNL     1      -9.657  -2.920  25.039  0.00  0.00    +0.000 HD
ATOM     15  H   UNL     1      -8.599  -4.874  23.830  0.00  0.00    +0.000 HD
ATOM     16  H   UNL     1      -7.415  -3.889  24.644  0.00  0.00    +0.000 HD
ENDROOT
BRANCH   1  19
ATOM     17  C   UNL     1      -7.811  -4.627  20.238  0.00  0.00    +0.000 C 
ATOM     18  O   UNL     1      -6.634  -4.824  19.981  0.00  0.00    +0.000 OA
ATOM     19  N   UNL     1      -8.242  -3.951  21.352  0.00  0.00    +0.000 N 
ATOM     20  H   UNL     1      -9.174  -4.291  21.562  0.00  0.00    +0.000 HD
BRANCH  17  21
ATOM     21  O   UNL     1      -8.879  -5.052  19.518  0.00  0.00    +0.000 OA
BRANCH  21  22
ATOM     22  C   UNL     1      -8.895  -6.431  19.029  0.00  0.00    +0.000 C 
BRANCH  22  23
ATOM     23  C   UNL     1      -8.457  -7.375  20.151  0.00  0.00    +0.000 C 
ATOM     24  H   UNL     1      -8.551  -6.902  21.131  0.00  0.00    +0.000 HD
ATOM     25  H   UNL     1      -7.415  -7.682  20.003  0.00  0.00    +0.000 HD
ATOM     26  H   UNL     1      -9.049  -8.293  20.170  0.00  0.00    +0.000 HD
ENDBRANCH  22  23
BRANCH  22  27
ATOM     27  C   UNL     1      -8.029  -6.582  17.770  0.00  0.00    +0.000 C 
ATOM     28  H   UNL     1      -8.090  -7.597  17.363  0.00  0.00    +0.000 HD
ATOM     29  H   UNL     1      -6.973  -6.380  17.968  0.00  0.00    +0.000 HD
ATOM     30  H   UNL     1      -8.336  -5.874  16.993  0.00  0.00    +0.000 HD
ENDBRANCH  22  27
BRANCH  22  31
ATOM     31  C   UNL     1     -10.350  -6.794  18.657  0.00  0.00    +0.000 C 
ATOM     32  H   UNL     1     -10.572  -7.840  18.909  0.00  0.00    +0.000 HD
ATOM     33  H   UNL     1     -10.550  -6.659  17.588  0.00  0.00    +0.000 HD
ATOM     34  H   UNL     1     -11.069  -6.162  19.192  0.00  0.00    +0.000 HD
ENDBRANCH  22  31
ENDBRANCH  21  22
ENDBRANCH  17  21
ENDBRANCH   1  19
BRANCH   5  35
ATOM     35  N   UNL     1     -10.258  -2.819  23.030  0.00  0.00    +0.000 N 
ATOM     36  H   UNL     1     -10.548  -3.801  22.930  0.00  0.00    +0.000 HD
ATOM     37  H   UNL     1      -9.901  -2.535  22.102  0.00  0.00    +0.000 HD
BRANCH  35  38
ATOM     38  C   UNL     1     -11.491  -1.979  23.294  0.00  0.00    +0.000 C 
ATOM     39  H   UNL     1     -11.261  -1.399  24.193  0.00  0.00    +0.000 HD
ATOM     40  H   UNL     1     -12.326  -2.649  23.495  0.00  0.00    +0.000 HD
BRANCH  38  41
ATOM     41  C   UNL     1     -11.798  -1.050  22.093  0.00  0.00    +0.000 C 
BRANCH  41  42
ATOM     42  C   UNL     1     -11.028   0.274  22.128  0.00  0.00    +0.000 C 
ATOM     43  H   UNL     1     -10.043   0.138  22.589  0.00  0.00    +0.000 HD
ATOM     44  H   UNL     1     -11.562   1.030  22.709  0.00  0.00    +0.000 HD
ATOM     45  H   UNL     1     -10.831   0.671  21.129  0.00  0.00    +0.000 HD
ENDBRANCH  41  42
BRANCH  41  46
ATOM     46  C   UNL     1     -11.448  -1.803  20.791  0.00  0.00    +0.000 C 
ATOM     47  H   UNL     1     -10.392  -2.094  20.764  0.00  0.00    +0.000 HD
ATOM     48  H   UNL     1     -11.623  -1.165  19.918  0.00  0.00    +0.000 HD
BRANCH  46  49
ATOM     49  O   UNL     1     -12.265  -2.964  20.665  0.00  0.00    +0.000 OA
ATOM     50  H   UNL     1     -11.738  -3.666  20.237  0.00  0.00    +0.000 HD
ENDBRANCH  46  49
ENDBRANCH  41  46
BRANCH  41  51
ATOM     51  O   UNL     1     -13.195  -0.739  22.162  0.00  0.00    +0.000 OA
ATOM     52  H   UNL     1     -13.443  -0.275  21.339  0.00  0.00    +0.000 HD
ENDBRANCH  41  51
ENDBRANCH  38  41
ENDBRANCH  35  38
ENDBRANCH   5  35
TORSDOF 13
ENDMDL
MODEL 2
REMARK VINA RESULT:    -6.140      1.961      5.409
REMARK INTER + INTRA:         -10.490
REMARK INTER:                  -9.378
REMARK INTRA:                  -1.112
REMARK UNBOUND:                -0.761
REMARK  Name = 
REMARK  13 active torsions:
REMARK  status: ('A' for Active; 'I' for Inactive)
REMARK    1  A    between atoms: C_1  and  C_2
REMARK    2  A    between atoms: C_2  and  C_3
REMARK    3  A    between atoms: C_2  and  C_4
REMARK    4  A    between atoms: C_2  and  O_5
REMARK    5  A    between atoms: O_5  and  C_6
REMARK    6  A    between atoms: N_8  and  C_9
REMARK    7  A    between atoms: C_13  and  N_14
REMARK    8  A    between atoms: N_14  and  C_15
REMARK    9  A    between atoms: C_15  and  C_16
REMARK   10  A    between atoms: C_16  and  C_17
REMARK   11  A    between atoms: C_16  and  O_18
REMARK   12  A    between atoms: C_16  and  C_19
REMARK   13  A    between atoms: C_19  and  O_20
REMARK                            x       y       z     vdW  Elec       q    Type
REMARK                         _______ _______ _______ _____ _____    ______ ____
ROOT
ATOM      1  C   UNL     1      -7.664  -6.521  19.662  0.00  0.00    +0.000 C 
ATOM      2  C   UNL     1      -8.053  -7.953  20.088  0.00  0.00    +0.000 C 
ATOM      3  C   UNL     1      -9.516  -8.279  19.800  0.00  0.00    +0.000 C 
ATOM      4  C   UNL     1      -9.845  -8.048  18.325  0.00  0.00    +0.000 C 
ATOM      5  C   UNL     1      -9.470  -6.638  17.842  0.00  0.00    +0.000 C 
ATOM      6  C   UNL     1      -7.994  -6.341  18.170  0.00  0.00    +0.000 C 
ATOM      7  H   UNL     1      -6.581  -6.405  19.805  0.00  0.00    +0.000 HD
ATOM      8  H   UNL     1      -7.837  -8.152  21.139  0.00  0.00    +0.000 HD
ATOM      9  H   UNL     1      -7.426  -8.661  19.527  0.00  0.00    +0.000 HD
ATOM     10  H   UNL     1     -10.169  -7.674  20.439  0.00  0.00    +0.000 HD
ATOM     11  H   UNL     1      -9.715  -9.326  20.063  0.00  0.00    +0.000 HD
ATOM     12  H   UNL     1     -10.904  -8.261  18.142  0.00  0.00    +0.000 HD
ATOM     13  H   UNL     1      -9.278  -8.782  17.732  0.00  0.00    +0.000 HD
ATOM     14  H   UNL     1      -9.654  -6.555  16.764  0.00  0.00    +0.000 HD
ATOM     15  H   UNL     1      -7.711  -5.338  17.835  0.00  0.00    +0.000 HD
ATOM     16  H   UNL     1      -7.368  -7.027  17.584  0.00  0.00    +0.000 HD
ENDROOT
BRANCH   1  19
ATOM     17  C   UNL     1      -7.543  -4.391  20.942  0.00  0.00    +0.000 C 
ATOM     18  O   UNL     1      -6.326  -4.402  21.023  0.00  0.00    +0.000 OA
ATOM     19  N   UNL     1      -8.280  -5.435  20.441  0.00  0.00    +0.000 N 
ATOM     20  H   UNL     1      -9.142  -5.042  20.079  0.00  0.00    +0.000 HD
BRANCH  17  21
ATOM     21  O   UNL     1      -8.369  -3.370  21.284  0.00  0.00    +0.000 OA
BRANCH  21  22
ATOM     22  C   UNL     1      -8.260  -2.795  22.624  0.00  0.00    +0.000 C 
BRANCH  22  23
ATOM     23  C   UNL     1      -7.184  -1.706  22.626  0.00  0.00    +0.000 C 
ATOM     24  H   UNL     1      -6.377  -1.940  21.928  0.00  0.00    +0.000 HD
ATOM     25  H   UNL     1      -6.763  -1.592  23.632  0.00  0.00    +0.000 HD
ATOM     26  H   UNL     1      -7.587  -0.729  22.348  0.00  0.00    +0.000 HD
ENDBRANCH  22  23
BRANCH  22  27
ATOM     27  C   UNL     1      -7.988  -3.882  23.674  0.00  0.00    +0.000 C 
ATOM     28  H   UNL     1      -7.275  -4.626  23.303  0.00  0.00    +0.000 HD
ATOM     29  H   UNL     1      -8.896  -4.421  23.956  0.00  0.00    +0.000 HD
ATOM     30  H   UNL     1      -7.591  -3.447  24.597  0.00  0.00    +0.000 HD
ENDBRANCH  22  27
BRANCH  22  31
ATOM     31  C   UNL     1      -9.606  -2.120  22.970  0.00  0.00    +0.000 C 
ATOM     32  H   UNL     1      -9.803  -2.163  24.050  0.00  0.00    +0.000 HD
ATOM     33  H   UNL     1     -10.450  -2.593  22.457  0.00  0.00    +0.000 HD
ATOM     34  H   UNL     1      -9.611  -1.064  22.673  0.00  0.00    +0.000 HD
ENDBRANCH  22  31
ENDBRANCH  21  22
ENDBRANCH  17  21
ENDBRANCH   1  19
BRANCH   5  35
ATOM     35  N   UNL     1     -10.373  -5.629  18.505  0.00  0.00    +0.000 N 
ATOM     36  H   UNL     1      -9.811  -5.130  19.208  0.00  0.00    +0.000 HD
ATOM     37  H   UNL     1     -11.130  -6.096  19.032  0.00  0.00    +0.000 HD
BRANCH  35  38
ATOM     38  C   UNL     1     -11.038  -4.606  17.608  0.00  0.00    +0.000 C 
ATOM     39  H   UNL     1     -12.114  -4.771  17.726  0.00  0.00    +0.000 HD
ATOM     40  H   UNL     1     -10.748  -4.813  16.578  0.00  0.00    +0.000 HD
BRANCH  38  41
ATOM     41  C   UNL     1     -10.646  -3.166  18.019  0.00  0.00    +0.000 C 
BRANCH  41  42
ATOM     42  C   UNL     1     -10.832  -2.135  16.901  0.00  0.00    +0.000 C 
ATOM     43  H   UNL     1     -11.835  -1.699  16.937  0.00  0.00    +0.000 HD
ATOM     44  H   UNL     1     -10.705  -2.591  15.915  0.00  0.00    +0.000 HD
ATOM     45  H   UNL     1     -10.142  -1.291  16.990  0.00  0.00    +0.000 HD
ENDBRANCH  41  42
BRANCH  41  46
ATOM     46  C   UNL     1     -11.506  -2.753  19.234  0.00  0.00    +0.000 C 
ATOM     47  H   UNL     1     -12.137  -1.887  19.006  0.00  0.00    +0.000 HD
ATOM     48  H   UNL     1     -10.869  -2.466  20.077  0.00  0.00    +0.000 HD
BRANCH  46  49
ATOM     49  O   UNL     1     -12.325  -3.844  19.644  0.00  0.00    +0.000 OA
ATOM     50  H   UNL     1     -12.025  -4.648  19.176  0.00  0.00    +0.000 HD
ENDBRANCH  46  49
ENDBRANCH  41  46
BRANCH  41  51
ATOM     51  O   UNL     1      -9.252  -3.199  18.349  0.00  0.00    +0.000 OA
ATOM     52  H   UNL     1      -9.120  -2.674  19.163  0.00  0.00    +0.000 HD
ENDBRANCH  41  51
ENDBRANCH  38  41
ENDBRANCH  35  38
ENDBRANCH   5  35
TORSDOF 13
ENDMDL
MODEL 3
REMARK VINA RESULT:    -6.031      4.894      6.344
REMARK INTER + INTRA:         -10.318
REMARK INTER:                  -9.682
REMARK INTRA:                  -0.635
REMARK UNBOUND:                -0.761
REMARK  Name = 
REMARK  13 active torsions:
REMARK  status: ('A' for Active; 'I' for Inactive)
REMARK    1  A    between atoms: C_1  and  C_2
REMARK    2  A    between atoms: C_2  and  C_3
REMARK    3  A    between atoms: C_2  and  C_4
REMARK    4  A    between atoms: C_2  and  O_5
REMARK    5  A    between atoms: O_5  and  C_6
REMARK    6  A    between atoms: N_8  and  C_9
REMARK    7  A    between atoms: C_13  and  N_14
REMARK    8  A    between atoms: N_14  and  C_15
REMARK    9  A    between atoms: C_15  and  C_16
REMARK   10  A    between atoms: C_16  and  C_17
REMARK   11  A    between atoms: C_16  and  O_18
REMARK   12  A    between atoms: C_16  and  C_19
REMARK   13  A    between atoms: C_19  and  O_20
REMARK                            x       y       z     vdW  Elec       q    Type
REMARK                         _______ _______ _______ _____ _____    ______ ____
ROOT
ATOM      1  C   UNL     1      -9.382  -7.065  19.135  0.00  0.00    +0.000 C 
ATOM      2  C   UNL     1      -8.411  -6.237  20.003  0.00  0.00    +0.000 C 
ATOM      3  C   UNL     1      -8.004  -4.921  19.346  0.00  0.00    +0.000 C 
ATOM      4  C   UNL     1      -9.235  -4.093  18.979  0.00  0.00    +0.000 C 
ATOM      5  C   UNL     1     -10.245  -4.871  18.119  0.00  0.00    +0.000 C 
ATOM      6  C   UNL     1     -10.612  -6.199  18.806  0.00  0.00    +0.000 C 
ATOM      7  H   UNL     1      -9.704  -7.936  19.719  0.00  0.00    +0.000 HD
ATOM      8  H   UNL     1      -7.515  -6.797  20.281  0.00  0.00    +0.000 HD
ATOM      9  H   UNL     1      -8.911  -6.006  20.955  0.00  0.00    +0.000 HD
ATOM     10  H   UNL     1      -7.393  -5.117  18.458  0.00  0.00    +0.000 HD
ATOM     11  H   UNL     1      -7.368  -4.351  20.036  0.00  0.00    +0.000 HD
ATOM     12  H   UNL     1      -8.926  -3.165  18.485  0.00  0.00    +0.000 HD
ATOM     13  H   UNL     1      -9.733  -3.792  19.913  0.00  0.00    +0.000 HD
ATOM     14  H   UNL     1     -11.138  -4.258  17.952  0.00  0.00    +0.000 HD
ATOM     15  H   UNL     1     -11.328  -6.768  18.205  0.00  0.00    +0.000 HD
ATOM     16  H   UNL     1     -11.141  -5.967  19.740  0.00  0.00    +0.000 HD
ENDROOT
BRANCH   1  19
ATOM     17  C   UNL     1      -8.732  -8.965  17.667  0.00  0.00    +0.000 C 
ATOM     18  O   UNL     1      -8.858  -9.805  18.544  0.00  0.00    +0.000 OA
ATOM     19  N   UNL     1      -8.816  -7.614  17.893  0.00  0.00    +0.000 N 
ATOM     20  H   UNL     1      -9.116  -7.187  17.022  0.00  0.00    +0.000 HD
BRANCH  17  21
ATOM     21  O   UNL     1      -8.530  -9.198  16.346  0.00  0.00    +0.000 OA
BRANCH  21  22
ATOM     22  C   UNL     1      -9.509 -10.001  15.615  0.00  0.00    +0.000 C 
BRANCH  22  23
ATOM     23  C   UNL     1     -10.921  -9.526  15.962  0.00  0.00    +0.000 C 
ATOM     24  H   UNL     1     -11.677 -10.248  15.642  0.00  0.00    +0.000 HD
ATOM     25  H   UNL     1     -11.126  -8.562  15.481  0.00  0.00    +0.000 HD
ATOM     26  H   UNL     1     -11.050  -9.369  17.036  0.00  0.00    +0.000 HD
ENDBRANCH  22  23
BRANCH  22  27
ATOM     27  C   UNL     1      -9.315 -11.499  15.892  0.00  0.00    +0.000 C 
ATOM     28  H   UNL     1      -9.337 -12.083  14.966  0.00  0.00    +0.000 HD
ATOM     29  H   UNL     1     -10.095 -11.903  16.543  0.00  0.00    +0.000 HD
ATOM     30  H   UNL     1      -8.364 -11.685  16.402  0.00  0.00    +0.000 HD
ENDBRANCH  22  27
BRANCH  22  31
ATOM     31  C   UNL     1      -9.297  -9.762  14.103  0.00  0.00    +0.000 C 
ATOM     32  H   UNL     1      -9.632 -10.627  13.515  0.00  0.00    +0.000 HD
ATOM     33  H   UNL     1      -8.245  -9.579  13.857  0.00  0.00    +0.000 HD
ATOM     34  H   UNL     1      -9.857  -8.886  13.755  0.00  0.00    +0.000 HD
ENDBRANCH  22  31
ENDBRANCH  21  22
ENDBRANCH  17  21
ENDBRANCH   1  19
BRANCH   5  35
ATOM     35  N   UNL     1      -9.646  -5.126  16.759  0.00  0.00    +0.000 N 
ATOM     36  H   UNL     1      -8.952  -5.878  16.866  0.00  0.00    +0.000 HD
ATOM     37  H   UNL     1      -9.117  -4.303  16.424  0.00  0.00    +0.000 HD
BRANCH  35  38
ATOM     38  C   UNL     1     -10.601  -5.507  15.647  0.00  0.00    +0.000 C 
ATOM     39  H   UNL     1     -11.467  -5.953  16.147  0.00  0.00    +0.000 HD
ATOM     40  H   UNL     1     -10.117  -6.255  15.020  0.00  0.00    +0.000 HD
BRANCH  38  41
ATOM     41  C   UNL     1     -11.013  -4.266  14.818  0.00  0.00    +0.000 C 
BRANCH  41  42
ATOM     42  C   UNL     1     -11.637  -3.146  15.656  0.00  0.00    +0.000 C 
ATOM     43  H   UNL     1     -11.574  -3.379  16.724  0.00  0.00    +0.000 HD
ATOM     44  H   UNL     1     -12.693  -3.006  15.411  0.00  0.00    +0.000 HD
ATOM     45  H   UNL     1     -11.117  -2.192  15.534  0.00  0.00    +0.000 HD
ENDBRANCH  41  42
BRANCH  41  46
ATOM     46  C   UNL     1      -9.759  -3.720  14.100  0.00  0.00    +0.000 C 
ATOM     47  H   UNL     1      -9.282  -2.919  14.674  0.00  0.00    +0.000 HD
ATOM     48  H   UNL     1     -10.027  -3.296  13.127  0.00  0.00    +0.000 HD
BRANCH  46  49
ATOM     49  O   UNL     1      -8.824  -4.773  13.884  0.00  0.00    +0.000 OA
ATOM     50  H   UNL     1      -8.207  -4.797  14.641  0.00  0.00    +0.000 HD
ENDBRANCH  46  49
ENDBRANCH  41  46
BRANCH  41  51
ATOM     51  O   UNL     1     -12.004  -4.709  13.882  0.00  0.00    +0.000 OA
ATOM     52  H   UNL     1     -12.871  -4.361  14.171  0.00  0.00    +0.000 HD
ENDBRANCH  41  51
ENDBRANCH  38  41
ENDBRANCH  35  38
ENDBRANCH   5  35
TORSDOF 13
ENDMDL
MODEL 4
REMARK VINA RESULT:    -6.018      2.145      5.333
REMARK INTER + INTRA:         -10.297
REMARK INTER:                  -9.530
REMARK INTRA:                  -0.767
REMARK UNBOUND:                -0.761
REMARK  Name = 
REMARK  13 active torsions:
REMARK  status: ('A' for Active; 'I' for Inactive)
REMARK    1  A    between atoms: C_1  and  C_2
REMARK    2  A    between atoms: C_2  and  C_3
REMARK    3  A    between atoms: C_2  and  C_4
REMARK    4  A    between atoms: C_2  and  O_5
REMARK    5  A    between atoms: O_5  and  C_6
REMARK    6  A    between atoms: N_8  and  C_9
REMARK    7  A    between atoms: C_13  and  N_14
REMARK    8  A    between atoms: N_14  and  C_15
REMARK    9  A    between atoms: C_15  and  C_16
REMARK   10  A    between atoms: C_16  and  C_17
REMARK   11  A    between atoms: C_16  and  O_18
REMARK   12  A    between atoms: C_16  and  C_19
REMARK   13  A    between atoms: C_19  and  O_20
REMARK                            x       y       z     vdW  Elec       q    Type
REMARK                         _______ _______ _______ _____ _____    ______ ____
ROOT
ATOM      1  C   UNL     1      -7.505  -6.440  19.792  0.00  0.00    +0.000 C 
ATOM      2  C   UNL     1      -7.943  -7.897  20.052  0.00  0.00    +0.000 C 
ATOM      3  C   UNL     1      -9.398  -8.155  19.671  0.00  0.00    +0.000 C 
ATOM      4  C   UNL     1      -9.656  -7.768  18.215  0.00  0.00    +0.000 C 
ATOM      5  C   UNL     1      -9.230  -6.325  17.895  0.00  0.00    +0.000 C 
ATOM      6  C   UNL     1      -7.764  -6.101  18.313  0.00  0.00    +0.000 C 
ATOM      7  H   UNL     1      -6.428  -6.367  19.992  0.00  0.00    +0.000 HD
ATOM      8  H   UNL     1      -7.778  -8.207  21.086  0.00  0.00    +0.000 HD
ATOM      9  H   UNL     1      -7.306  -8.561  19.449  0.00  0.00    +0.000 HD
ATOM     10  H   UNL     1     -10.066  -7.601  20.341  0.00  0.00    +0.000 HD
ATOM     11  H   UNL     1      -9.630  -9.217  19.816  0.00  0.00    +0.000 HD
ATOM     12  H   UNL     1     -10.710  -7.933  17.966  0.00  0.00    +0.000 HD
ATOM     13  H   UNL     1      -9.078  -8.451  17.574  0.00  0.00    +0.000 HD
ATOM     14  H   UNL     1      -9.364  -6.129  16.825  0.00  0.00    +0.000 HD
ATOM     15  H   UNL     1      -7.446  -5.077  18.095  0.00  0.00    +0.000 HD
ATOM     16  H   UNL     1      -7.128  -6.740  17.687  0.00  0.00    +0.000 HD
ENDROOT
BRANCH   1  19
ATOM     17  C   UNL     1      -7.470  -4.282  21.030  0.00  0.00    +0.000 C 
ATOM     18  O   UNL     1      -6.263  -4.136  20.925  0.00  0.00    +0.000 OA
ATOM     19  N   UNL     1      -8.132  -5.423  20.651  0.00  0.00    +0.000 N 
ATOM     20  H   UNL     1      -9.083  -5.151  20.423  0.00  0.00    +0.000 HD
BRANCH  17  21
ATOM     21  O   UNL     1      -8.360  -3.367  21.489  0.00  0.00    +0.000 OA
BRANCH  21  22
ATOM     22  C   UNL     1      -8.176  -2.819  22.833  0.00  0.00    +0.000 C 
BRANCH  22  23
ATOM     23  C   UNL     1      -7.283  -1.578  22.760  0.00  0.00    +0.000 C 
ATOM     24  H   UNL     1      -7.340  -1.101  21.778  0.00  0.00    +0.000 HD
ATOM     25  H   UNL     1      -6.240  -1.849  22.963  0.00  0.00    +0.000 HD
ATOM     26  H   UNL     1      -7.558  -0.829  23.506  0.00  0.00    +0.000 HD
ENDBRANCH  22  23
BRANCH  22  27
ATOM     27  C   UNL     1      -7.619  -3.880  23.794  0.00  0.00    +0.000 C 
ATOM     28  H   UNL     1      -7.156  -4.708  23.248  0.00  0.00    +0.000 HD
ATOM     29  H   UNL     1      -8.397  -4.310  24.430  0.00  0.00    +0.000 HD
ATOM     30  H   UNL     1      -6.875  -3.446  24.471  0.00  0.00    +0.000 HD
ENDBRANCH  22  27
BRANCH  22  31
ATOM     31  C   UNL     1      -9.556  -2.368  23.363  0.00  0.00    +0.000 C 
ATOM     32  H   UNL     1     -10.367  -2.762  22.737  0.00  0.00    +0.000 HD
ATOM     33  H   UNL     1      -9.653  -1.277  23.387  0.00  0.00    +0.000 HD
ATOM     34  H   UNL     1      -9.724  -2.719  24.388  0.00  0.00    +0.000 HD
ENDBRANCH  22  31
ENDBRANCH  21  22
ENDBRANCH  17  21
ENDBRANCH   1  19
BRANCH   5  35
ATOM     35  N   UNL     1     -10.140  -5.367  18.619  0.00  0.00    +0.000 N 
ATOM     36  H   UNL     1      -9.917  -5.429  19.622  0.00  0.00    +0.000 HD
ATOM     37  H   UNL     1     -11.129  -5.655  18.534  0.00  0.00    +0.000 HD
BRANCH  35  38
ATOM     38  C   UNL     1     -10.077  -3.911  18.203  0.00  0.00    +0.000 C 
ATOM     39  H   UNL     1      -9.655  -3.915  17.194  0.00  0.00    +0.000 HD
ATOM     40  H   UNL     1      -9.401  -3.390  18.880  0.00  0.00    +0.000 HD
BRANCH  38  41
ATOM     41  C   UNL     1     -11.486  -3.267  18.217  0.00  0.00    +0.000 C 
BRANCH  41  42
ATOM     42  C   UNL     1     -11.462  -1.738  18.305  0.00  0.00    +0.000 C 
ATOM     43  H   UNL     1     -10.646  -1.399  18.952  0.00  0.00    +0.000 HD
ATOM     44  H   UNL     1     -12.395  -1.349  18.719  0.00  0.00    +0.000 HD
ATOM     45  H   UNL     1     -11.282  -1.265  17.336  0.00  0.00    +0.000 HD
ENDBRANCH  41  42
BRANCH  41  46
ATOM     46  C   UNL     1     -12.227  -3.687  16.929  0.00  0.00    +0.000 C 
ATOM     47  H   UNL     1     -11.704  -3.340  16.031  0.00  0.00    +0.000 HD
ATOM     48  H   UNL     1     -13.229  -3.246  16.900  0.00  0.00    +0.000 HD
BRANCH  46  49
ATOM     49  O   UNL     1     -12.362  -5.104  16.884  0.00  0.00    +0.000 OA
ATOM     50  H   UNL     1     -12.648  -5.359  15.985  0.00  0.00    +0.000 HD
ENDBRANCH  46  49
ENDBRANCH  41  46
BRANCH  41  51
ATOM     51  O   UNL     1     -12.149  -3.758  19.389  0.00  0.00    +0.000 OA
ATOM     52  H   UNL     1     -12.414  -4.684  19.222  0.00  0.00    +0.000 HD
ENDBRANCH  41  51
ENDBRANCH  38  41
ENDBRANCH  35  38
ENDBRANCH   5  35
TORSDOF 13
ENDMDL
MODEL 5
REMARK VINA RESULT:    -5.722      3.713      5.923
REMARK INTER + INTRA:          -9.827
REMARK INTER:                  -8.423
REMARK INTRA:                  -1.404
REMARK UNBOUND:                -0.761
REMARK  Name = 
REMARK  13 active torsions:
REMARK  status: ('A' for Active; 'I' for Inactive)
REMARK    1  A    between atoms: C_1  and  C_2
REMARK    2  A    between atoms: C_2  and  C_3
REMARK    3  A    between atoms: C_2  and  C_4
REMARK    4  A    between atoms: C_2  and  O_5
REMARK    5  A    between atoms: O_5  and  C_6
REMARK    6  A    between atoms: N_8  and  C_9
REMARK    7  A    between atoms: C_13  and  N_14
REMARK    8  A    between atoms: N_14  and  C_15
REMARK    9  A    between atoms: C_15  and  C_16
REMARK   10  A    between atoms: C_16  and  C_17
REMARK   11  A    between atoms: C_16  and  O_18
REMARK   12  A    between atoms: C_16  and  C_19
REMARK   13  A    between atoms: C_19  and  O_20
REMARK                            x       y       z     vdW  Elec       q    Type
REMARK                         _______ _______ _______ _____ _____    ______ ____
ROOT
ATOM      1  C   UNL     1     -10.745  -4.148  16.754  0.00  0.00    +0.000 C 
ATOM      2  C   UNL     1     -12.102  -3.659  17.302  0.00  0.00    +0.000 C 
ATOM      3  C   UNL     1     -12.128  -3.571  18.826  0.00  0.00    +0.000 C 
ATOM      4  C   UNL     1     -10.992  -2.687  19.339  0.00  0.00    +0.000 C 
ATOM      5  C   UNL     1      -9.612  -3.123  18.817  0.00  0.00    +0.000 C 
ATOM      6  C   UNL     1      -9.635  -3.220  17.280  0.00  0.00    +0.000 C 
ATOM      7  H   UNL     1     -10.776  -4.083  15.658  0.00  0.00    +0.000 HD
ATOM      8  H   UNL     1     -12.939  -4.272  16.960  0.00  0.00    +0.000 HD
ATOM      9  H   UNL     1     -12.297  -2.656  16.896  0.00  0.00    +0.000 HD
ATOM     10  H   UNL     1     -12.063  -4.574  19.262  0.00  0.00    +0.000 HD
ATOM     11  H   UNL     1     -13.092  -3.158  19.150  0.00  0.00    +0.000 HD
ATOM     12  H   UNL     1     -11.009  -2.657  20.434  0.00  0.00    +0.000 HD
ATOM     13  H   UNL     1     -11.183  -1.658  19.000  0.00  0.00    +0.000 HD
ATOM     14  H   UNL     1      -8.849  -2.411  19.151  0.00  0.00    +0.000 HD
ATOM     15  H   UNL     1      -8.661  -3.533  16.892  0.00  0.00    +0.000 HD
ATOM     16  H   UNL     1      -9.797  -2.212  16.875  0.00  0.00    +0.000 HD
ENDROOT
BRANCH   1  19
ATOM     17  C   UNL     1      -9.717  -6.335  16.163  0.00  0.00    +0.000 C 
ATOM     18  O   UNL     1      -9.571  -6.053  14.985  0.00  0.00    +0.000 OA
ATOM     19  N   UNL     1     -10.403  -5.548  17.053  0.00  0.00    +0.000 N 
ATOM     20  H   UNL     1     -10.023  -5.742  17.974  0.00  0.00    +0.000 HD
BRANCH  17  21
ATOM     21  O   UNL     1      -9.217  -7.422  16.803  0.00  0.00    +0.000 OA
BRANCH  21  22
ATOM     22  C   UNL     1      -9.615  -8.754  16.346  0.00  0.00    +0.000 C 
BRANCH  22  23
ATOM     23  C   UNL     1      -8.891  -9.082  15.038  0.00  0.00    +0.000 C 
ATOM     24  H   UNL     1      -8.019  -8.440  14.892  0.00  0.00    +0.000 HD
ATOM     25  H   UNL     1      -9.571  -8.956  14.187  0.00  0.00    +0.000 HD
ATOM     26  H   UNL     1      -8.547 -10.118  15.007  0.00  0.00    +0.000 HD
ENDBRANCH  22  23
BRANCH  22  27
ATOM     27  C   UNL     1     -11.141  -8.859  16.208  0.00  0.00    +0.000 C 
ATOM     28  H   UNL     1     -11.609  -7.870  16.179  0.00  0.00    +0.000 HD
ATOM     29  H   UNL     1     -11.595  -9.404  17.040  0.00  0.00    +0.000 HD
ATOM     30  H   UNL     1     -11.417  -9.404  15.298  0.00  0.00    +0.000 HD
ENDBRANCH  22  27
BRANCH  22  31
ATOM     31  C   UNL     1      -9.156  -9.784  17.402  0.00  0.00    +0.000 C 
ATOM     32  H   UNL     1     -10.000 -10.116  18.022  0.00  0.00    +0.000 HD
ATOM     33  H   UNL     1      -8.390  -9.376  18.071  0.00  0.00    +0.000 HD
ATOM     34  H   UNL     1      -8.719 -10.672  16.930  0.00  0.00    +0.000 HD
ENDBRANCH  22  31
ENDBRANCH  21  22
ENDBRANCH  17  21
ENDBRANCH   1  19
BRANCH   5  35
ATOM     35  N   UNL     1      -9.249  -4.453  19.426  0.00  0.00    +0.000 N 
ATOM     36  H   UNL     1      -9.383  -5.170  18.701  0.00  0.00    +0.000 HD
ATOM     37  H   UNL     1      -9.898  -4.703  20.191  0.00  0.00    +0.000 HD
BRANCH  35  38
ATOM     38  C   UNL     1      -7.848  -4.592  19.986  0.00  0.00    +0.000 C 
ATOM     39  H   UNL     1      -7.975  -4.680  21.069  0.00  0.00    +0.000 HD
ATOM     40  H   UNL     1      -7.294  -3.683  19.755  0.00  0.00    +0.000 HD
BRANCH  38  41
ATOM     41  C   UNL     1      -7.138  -5.840  19.404  0.00  0.00    +0.000 C 
BRANCH  41  42
ATOM     42  C   UNL     1      -5.634  -5.881  19.691  0.00  0.00    +0.000 C 
ATOM     43  H   UNL     1      -5.197  -4.879  19.616  0.00  0.00    +0.000 HD
ATOM     44  H   UNL     1      -5.110  -6.524  18.979  0.00  0.00    +0.000 HD
ATOM     45  H   UNL     1      -5.410  -6.223  20.705  0.00  0.00    +0.000 HD
ENDBRANCH  41  42
BRANCH  41  46
ATOM     46  C   UNL     1      -7.800  -7.101  20.001  0.00  0.00    +0.000 C 
ATOM     47  H   UNL     1      -7.755  -7.101  21.096  0.00  0.00    +0.000 HD
ATOM     48  H   UNL     1      -7.282  -8.005  19.663  0.00  0.00    +0.000 HD
BRANCH  46  49
ATOM     49  O   UNL     1      -9.159  -7.184  19.580  0.00  0.00    +0.000 OA
ATOM     50  H   UNL     1      -9.701  -7.462  20.344  0.00  0.00    +0.000 HD
ENDBRANCH  46  49
ENDBRANCH  41  46
BRANCH  41  51
ATOM     51  O   UNL     1      -7.306  -5.781  17.982  0.00  0.00    +0.000 OA
ATOM     52  H   UNL     1      -7.408  -4.843  17.728  0.00  0.00    +0.000 HD
ENDBRANCH  41  51
ENDBRANCH  38  41
ENDBRANCH  35  38
ENDBRANCH   5  35
TORSDOF 13
ENDMDL
MODEL 6
REMARK VINA RESULT:    -5.705      4.814      6.756
REMARK INTER + INTRA:          -9.801
REMARK INTER:                  -8.397
REMARK INTRA:                  -1.403
REMARK UNBOUND:                -0.761
REMARK  Name = 
REMARK  13 active torsions:
REMARK  status: ('A' for Active; 'I' for Inactive)
REMARK    1  A    between atoms: C_1  and  C_2
REMARK    2  A    between atoms: C_2  and  C_3
REMARK    3  A    between atoms: C_2  and  C_4
REMARK    4  A    between atoms: C_2  and  O_5
REMARK    5  A    between atoms: O_5  and  C_6
REMARK    6  A    between atoms: N_8  and  C_9
REMARK    7  A    between atoms: C_13  and  N_14
REMARK    8  A    between atoms: N_14  and  C_15
REMARK    9  A    between atoms: C_15  and  C_16
REMARK   10  A    between atoms: C_16  and  C_17
REMARK   11  A    between atoms: C_16  and  O_18
REMARK   12  A    between atoms: C_16  and  C_19
REMARK   13  A    between atoms: C_19  and  O_20
REMARK                            x       y       z     vdW  Elec       q    Type
REMARK                         _______ _______ _______ _____ _____    ______ ____
ROOT
ATOM      1  C   UNL     1      -9.981  -4.857  18.330  0.00  0.00    +0.000 C 
ATOM      2  C   UNL     1      -9.553  -3.375  18.378  0.00  0.00    +0.000 C 
ATOM      3  C   UNL     1      -9.979  -2.595  17.138  0.00  0.00    +0.000 C 
ATOM      4  C   UNL     1     -11.487  -2.712  16.913  0.00  0.00    +0.000 C 
ATOM      5  C   UNL     1     -11.973  -4.170  16.864  0.00  0.00    +0.000 C 
ATOM      6  C   UNL     1     -11.504  -4.926  18.122  0.00  0.00    +0.000 C 
ATOM      7  H   UNL     1      -9.730  -5.316  19.295  0.00  0.00    +0.000 HD
ATOM      8  H   UNL     1      -8.479  -3.253  18.533  0.00  0.00    +0.000 HD
ATOM      9  H   UNL     1     -10.023  -2.909  19.257  0.00  0.00    +0.000 HD
ATOM     10  H   UNL     1      -9.430  -2.954  16.260  0.00  0.00    +0.000 HD
ATOM     11  H   UNL     1      -9.706  -1.539  17.260  0.00  0.00    +0.000 HD
ATOM     12  H   UNL     1     -11.771  -2.169  16.005  0.00  0.00    +0.000 HD
ATOM     13  H   UNL     1     -11.995  -2.203  17.746  0.00  0.00    +0.000 HD
ATOM     14  H   UNL     1     -13.065  -4.193  16.780  0.00  0.00    +0.000 HD
ATOM     15  H   UNL     1     -11.839  -5.968  18.101  0.00  0.00    +0.000 HD
ATOM     16  H   UNL     1     -12.001  -4.481  18.994  0.00  0.00    +0.000 HD
ENDROOT
BRANCH   1  19
ATOM     17  C   UNL     1      -8.826  -6.937  17.602  0.00  0.00    +0.000 C 
ATOM     18  O   UNL     1      -8.676  -7.360  18.737  0.00  0.00    +0.000 OA
ATOM     19  N   UNL     1      -9.304  -5.683  17.317  0.00  0.00    +0.000 N 
ATOM     20  H   UNL     1      -9.736  -5.733  16.400  0.00  0.00    +0.000 HD
BRANCH  17  21
ATOM     21  O   UNL     1      -8.592  -7.612  16.449  0.00  0.00    +0.000 OA
BRANCH  21  22
ATOM     22  C   UNL     1      -9.341  -8.842  16.189  0.00  0.00    +0.000 C 
BRANCH  22  23
ATOM     23  C   UNL     1     -10.842  -8.545  16.238  0.00  0.00    +0.000 C 
ATOM     24  H   UNL     1     -11.433  -9.445  16.051  0.00  0.00    +0.000 HD
ATOM     25  H   UNL     1     -11.102  -7.787  15.490  0.00  0.00    +0.000 HD
ATOM     26  H   UNL     1     -11.150  -8.143  17.206  0.00  0.00    +0.000 HD
ENDBRANCH  22  23
BRANCH  22  27
ATOM     27  C   UNL     1      -8.936  -9.955  17.166  0.00  0.00    +0.000 C 
ATOM     28  H   UNL     1      -8.222 -10.647  16.709  0.00  0.00    +0.000 HD
ATOM     29  H   UNL     1      -9.793 -10.549  17.494  0.00  0.00    +0.000 HD
ATOM     30  H   UNL     1      -8.488  -9.538  18.074  0.00  0.00    +0.000 HD
ENDBRANCH  22  27
BRANCH  22  31
ATOM     31  C   UNL     1      -9.007  -9.316  14.756  0.00  0.00    +0.000 C 
ATOM     32  H   UNL     1      -8.093  -8.833  14.384  0.00  0.00    +0.000 HD
ATOM     33  H   UNL     1      -9.814  -9.094  14.049  0.00  0.00    +0.000 HD
ATOM     34  H   UNL     1      -8.850 -10.400  14.721  0.00  0.00    +0.000 HD
ENDBRANCH  22  31
ENDBRANCH  21  22
ENDBRANCH  17  21
ENDBRANCH   1  19
BRANCH   5  35
ATOM     35  N   UNL     1     -11.438  -4.830  15.619  0.00  0.00    +0.000 N 
ATOM     36  H   UNL     1     -11.678  -5.829  15.673  0.00  0.00    +0.000 HD
ATOM     37  H   UNL     1     -10.405  -4.791  15.591  0.00  0.00    +0.000 HD
BRANCH  35  38
ATOM     38  C   UNL     1     -11.926  -4.289  14.290  0.00  0.00    +0.000 C 
ATOM     39  H   UNL     1     -12.463  -3.367  14.531  0.00  0.00    +0.000 HD
ATOM     40  H   UNL     1     -12.616  -5.013  13.859  0.00  0.00    +0.000 HD
BRANCH  38  41
ATOM     41  C   UNL     1     -10.740  -4.011  13.334  0.00  0.00    +0.000 C 
BRANCH  41  42
ATOM     42  C   UNL     1     -10.584  -2.533  12.963  0.00  0.00    +0.000 C 
ATOM     43  H   UNL     1      -9.790  -2.066  13.555  0.00  0.00    +0.000 HD
ATOM     44  H   UNL     1     -11.506  -1.976  13.150  0.00  0.00    +0.000 HD
ATOM     45  H   UNL     1     -10.292  -2.391  11.919  0.00  0.00    +0.000 HD
ENDBRANCH  41  42
BRANCH  41  46
ATOM     46  C   UNL     1      -9.441  -4.502  14.010  0.00  0.00    +0.000 C 
ATOM     47  H   UNL     1      -9.351  -4.122  15.034  0.00  0.00    +0.000 HD
ATOM     48  H   UNL     1      -8.563  -4.144  13.463  0.00  0.00    +0.000 HD
BRANCH  46  49
ATOM     49  O   UNL     1      -9.407  -5.926  14.025  0.00  0.00    +0.000 OA
ATOM     50  H   UNL     1      -9.855  -6.253  13.221  0.00  0.00    +0.000 HD
ENDBRANCH  46  49
ENDBRANCH  41  46
BRANCH  41  51
ATOM     51  O   UNL     1     -11.009  -4.733  12.126  0.00  0.00    +0.000 OA
ATOM     52  H   UNL     1     -11.088  -5.681  12.351  0.00  0.00    +0.000 HD
ENDBRANCH  41  51
ENDBRANCH  38  41
ENDBRANCH  35  38
ENDBRANCH   5  35
TORSDOF 13
ENDMDL
MODEL 7
REMARK VINA RESULT:    -5.636      3.774      6.997
REMARK INTER + INTRA:          -9.692
REMARK INTER:                  -8.415
REMARK INTRA:                  -1.277
REMARK UNBOUND:                -0.761
REMARK  Name = 
REMARK  13 active torsions:
REMARK  status: ('A' for Active; 'I' for Inactive)
REMARK    1  A    between atoms: C_1  and  C_2
REMARK    2  A    between atoms: C_2  and  C_3
REMARK    3  A    between atoms: C_2  and  C_4
REMARK    4  A    between atoms: C_2  and  O_5
REMARK    5  A    between atoms: O_5  and  C_6
REMARK    6  A    between atoms: N_8  and  C_9
REMARK    7  A    between atoms: C_13  and  N_14
REMARK    8  A    between atoms: N_14  and  C_15
REMARK    9  A    between atoms: C_15  and  C_16
REMARK   10  A    between atoms: C_16  and  C_17
REMARK   11  A    between atoms: C_16  and  O_18
REMARK   12  A    between atoms: C_16  and  C_19
REMARK   13  A    between atoms: C_19  and  O_20
REMARK                            x       y       z     vdW  Elec       q    Type
REMARK                         _______ _______ _______ _____ _____    ______ ____
ROOT
ATOM      1  C   UNL     1     -11.040  -7.447  17.202  0.00  0.00    +0.000 C 
ATOM      2  C   UNL     1     -10.726  -8.568  16.189  0.00  0.00    +0.000 C 
ATOM      3  C   UNL     1      -9.303  -9.103  16.320  0.00  0.00    +0.000 C 
ATOM      4  C   UNL     1      -9.029  -9.577  17.747  0.00  0.00    +0.000 C 
ATOM      5  C   UNL     1      -9.333  -8.501  18.803  0.00  0.00    +0.000 C 
ATOM      6  C   UNL     1     -10.769  -7.974  18.623  0.00  0.00    +0.000 C 
ATOM      7  H   UNL     1     -12.105  -7.194  17.112  0.00  0.00    +0.000 HD
ATOM      8  H   UNL     1     -10.906  -8.263  15.156  0.00  0.00    +0.000 HD
ATOM      9  H   UNL     1     -11.425  -9.399  16.368  0.00  0.00    +0.000 HD
ATOM     10  H   UNL     1      -8.583  -8.331  16.025  0.00  0.00    +0.000 HD
ATOM     11  H   UNL     1      -9.162  -9.938  15.621  0.00  0.00    +0.000 HD
ATOM     12  H   UNL     1      -7.996  -9.932  17.830  0.00  0.00    +0.000 HD
ATOM     13  H   UNL     1      -9.670 -10.449  17.944  0.00  0.00    +0.000 HD
ATOM     14  H   UNL     1      -9.194  -8.919  19.807  0.00  0.00    +0.000 HD
ATOM     15  H   UNL     1     -11.000  -7.204  19.365  0.00  0.00    +0.000 HD
ATOM     16  H   UNL     1     -11.465  -8.796  18.834  0.00  0.00    +0.000 HD
ENDROOT
BRANCH   1  19
ATOM     17  C   UNL     1     -10.853  -5.150  16.266  0.00  0.00    +0.000 C 
ATOM     18  O   UNL     1     -11.813  -5.275  15.523  0.00  0.00    +0.000 OA
ATOM     19  N   UNL     1     -10.319  -6.181  16.996  0.00  0.00    +0.000 N 
ATOM     20  H   UNL     1      -9.873  -5.769  17.809  0.00  0.00    +0.000 HD
BRANCH  17  21
ATOM     21  O   UNL     1     -10.180  -4.002  16.532  0.00  0.00    +0.000 OA
BRANCH  21  22
ATOM     22  C   UNL     1     -10.892  -2.902  17.181  0.00  0.00    +0.000 C 
BRANCH  22  23
ATOM     23  C   UNL     1     -11.673  -3.438  18.383  0.00  0.00    +0.000 C 
ATOM     24  H   UNL     1     -11.630  -4.529  18.433  0.00  0.00    +0.000 HD
ATOM     25  H   UNL     1     -12.721  -3.125  18.324  0.00  0.00    +0.000 HD
ATOM     26  H   UNL     1     -11.288  -3.050  19.330  0.00  0.00    +0.000 HD
ENDBRANCH  22  23
BRANCH  22  27
ATOM     27  C   UNL     1     -11.795  -2.161  16.184  0.00  0.00    +0.000 C 
ATOM     28  H   UNL     1     -11.207  -1.654  15.413  0.00  0.00    +0.000 HD
ATOM     29  H   UNL     1     -12.410  -1.400  16.671  0.00  0.00    +0.000 HD
ATOM     30  H   UNL     1     -12.492  -2.852  15.697  0.00  0.00    +0.000 HD
ENDBRANCH  22  27
BRANCH  22  31
ATOM     31  C   UNL     1      -9.845  -1.899  17.717  0.00  0.00    +0.000 C 
ATOM     32  H   UNL     1      -9.419  -1.300  16.901  0.00  0.00    +0.000 HD
ATOM     33  H   UNL     1      -9.017  -2.401  18.231  0.00  0.00    +0.000 HD
ATOM     34  H   UNL     1     -10.289  -1.207  18.442  0.00  0.00    +0.000 HD
ENDBRANCH  22  31
ENDBRANCH  21  22
ENDBRANCH  17  21
ENDBRANCH   1  19
BRANCH   5  35
ATOM     35  N   UNL     1      -8.336  -7.379  18.669  0.00  0.00    +0.000 N 
ATOM     36  H   UNL     1      -8.780  -6.638  18.110  0.00  0.00    +0.000 HD
ATOM     37  H   UNL     1      -7.506  -7.679  18.129  0.00  0.00    +0.000 HD
BRANCH  35  38
ATOM     38  C   UNL     1      -7.815  -6.764  19.953  0.00  0.00    +0.000 C 
ATOM     39  H   UNL     1      -6.972  -7.393  20.255  0.00  0.00    +0.000 HD
ATOM     40  H   UNL     1      -8.601  -6.822  20.704  0.00  0.00    +0.000 HD
BRANCH  38  41
ATOM     41  C   UNL     1      -7.367  -5.299  19.726  0.00  0.00    +0.000 C 
BRANCH  41  42
ATOM     42  C   UNL     1      -7.710  -4.365  20.891  0.00  0.00    +0.000 C 
ATOM     43  H   UNL     1      -8.245  -4.906  21.678  0.00  0.00    +0.000 HD
ATOM     44  H   UNL     1      -8.348  -3.540  20.565  0.00  0.00    +0.000 HD
ATOM     45  H   UNL     1      -6.819  -3.952  21.373  0.00  0.00    +0.000 HD
ENDBRANCH  41  42
BRANCH  41  46
ATOM     46  C   UNL     1      -5.839  -5.285  19.500  0.00  0.00    +0.000 C 
ATOM     47  H   UNL     1      -5.304  -5.764  20.328  0.00  0.00    +0.000 HD
ATOM     48  H   UNL     1      -5.469  -4.256  19.439  0.00  0.00    +0.000 HD
BRANCH  46  49
ATOM     49  O   UNL     1      -5.520  -5.947  18.280  0.00  0.00    +0.000 OA
ATOM     50  H   UNL     1      -5.182  -5.283  17.648  0.00  0.00    +0.000 HD
ENDBRANCH  46  49
ENDBRANCH  41  46
BRANCH  41  51
ATOM     51  O   UNL     1      -8.073  -4.828  18.572  0.00  0.00    +0.000 OA
ATOM     52  H   UNL     1      -8.162  -5.574  17.946  0.00  0.00    +0.000 HD
ENDBRANCH  41  51
ENDBRANCH  38  41
ENDBRANCH  35  38
ENDBRANCH   5  35
TORSDOF 13
ENDMDL
MODEL 8
REMARK VINA RESULT:    -5.628      2.020      4.135
REMARK INTER + INTRA:          -9.679
REMARK INTER:                  -8.691
REMARK INTRA:                  -0.988
REMARK UNBOUND:                -0.761
REMARK  Name = 
REMARK  13 active torsions:
REMARK  status: ('A' for Active; 'I' for Inactive)
REMARK    1  A    between atoms: C_1  and  C_2
REMARK    2  A    between atoms: C_2  and  C_3
REMARK    3  A    between atoms: C_2  and  C_4
REMARK    4  A    between atoms: C_2  and  O_5
REMARK    5  A    between atoms: O_5  and  C_6
REMARK    6  A    between atoms: N_8  and  C_9
REMARK    7  A    between atoms: C_13  and  N_14
REMARK    8  A    between atoms: N_14  and  C_15
REMARK    9  A    between atoms: C_15  and  C_16
REMARK   10  A    between atoms: C_16  and  C_17
REMARK   11  A    between atoms: C_16  and  O_18
REMARK   12  A    between atoms: C_16  and  C_19
REMARK   13  A    between atoms: C_19  and  O_20
REMARK                            x       y       z     vdW  Elec       q    Type
REMARK                         _______ _______ _______ _____ _____    ______ ____
ROOT
ATOM      1  C   UNL     1     -11.129  -2.289  19.484  0.00  0.00    +0.000 C 
ATOM      2  C   UNL     1     -12.027  -2.056  20.718  0.00  0.00    +0.000 C 
ATOM      3  C   UNL     1     -11.231  -1.702  21.971  0.00  0.00    +0.000 C 
ATOM      4  C   UNL     1     -10.336  -0.488  21.722  0.00  0.00    +0.000 C 
ATOM      5  C   UNL     1      -9.423  -0.660  20.496  0.00  0.00    +0.000 C 
ATOM      6  C   UNL     1     -10.262  -1.037  19.261  0.00  0.00    +0.000 C 
ATOM      7  H   UNL     1     -11.780  -2.433  18.612  0.00  0.00    +0.000 HD
ATOM      8  H   UNL     1     -12.678  -2.907  20.930  0.00  0.00    +0.000 HD
ATOM      9  H   UNL     1     -12.709  -1.222  20.496  0.00  0.00    +0.000 HD
ATOM     10  H   UNL     1     -10.633  -2.563  22.293  0.00  0.00    +0.000 HD
ATOM     11  H   UNL     1     -11.924  -1.486  22.794  0.00  0.00    +0.000 HD
ATOM     12  H   UNL     1      -9.752  -0.265  22.622  0.00  0.00    +0.000 HD
ATOM     13  H   UNL     1     -10.986   0.384  21.553  0.00  0.00    +0.000 HD
ATOM     14  H   UNL     1      -8.864   0.266  20.320  0.00  0.00    +0.000 HD
ATOM     15  H   UNL     1      -9.626  -1.166  18.379  0.00  0.00    +0.000 HD
ATOM     16  H   UNL     1     -10.918  -0.190  19.021  0.00  0.00    +0.000 HD
ENDROOT
BRANCH   1  19
ATOM     17  C   UNL     1      -9.860  -4.132  18.398  0.00  0.00    +0.000 C 
ATOM     18  O   UNL     1     -10.363  -3.955  17.301  0.00  0.00    +0.000 OA
ATOM     19  N   UNL     1     -10.272  -3.483  19.535  0.00  0.00    +0.000 N 
ATOM     20  H   UNL     1      -9.475  -3.451  20.163  0.00  0.00    +0.000 HD
BRANCH  17  21
ATOM     21  O   UNL     1      -8.813  -4.945  18.688  0.00  0.00    +0.000 OA
BRANCH  21  22
ATOM     22  C   UNL     1      -8.966  -6.386  18.495  0.00  0.00    +0.000 C 
BRANCH  22  23
ATOM     23  C   UNL     1      -8.339  -6.793  17.160  0.00  0.00    +0.000 C 
ATOM     24  H   UNL     1      -9.099  -6.929  16.386  0.00  0.00    +0.000 HD
ATOM     25  H   UNL     1      -7.776  -7.726  17.274  0.00  0.00    +0.000 HD
ATOM     26  H   UNL     1      -7.629  -6.047  16.795  0.00  0.00    +0.000 HD
ENDBRANCH  22  23
BRANCH  22  27
ATOM     27  C   UNL     1     -10.440  -6.806  18.596  0.00  0.00    +0.000 C 
ATOM     28  H   UNL     1     -11.103  -6.035  18.190  0.00  0.00    +0.000 HD
ATOM     29  H   UNL     1     -10.750  -6.983  19.629  0.00  0.00    +0.000 HD
ATOM     30  H   UNL     1     -10.621  -7.743  18.058  0.00  0.00    +0.000 HD
ENDBRANCH  22  27
BRANCH  22  31
ATOM     31  C   UNL     1      -8.184  -7.109  19.615  0.00  0.00    +0.000 C 
ATOM     32  H   UNL     1      -7.103  -6.947  19.508  0.00  0.00    +0.000 HD
ATOM     33  H   UNL     1      -8.362  -8.190  19.613  0.00  0.00    +0.000 HD
ATOM     34  H   UNL     1      -8.479  -6.745  20.607  0.00  0.00    +0.000 HD
ENDBRANCH  22  31
ENDBRANCH  21  22
ENDBRANCH  17  21
ENDBRANCH   1  19
BRANCH   5  35
ATOM     35  N   UNL     1      -8.398  -1.726  20.786  0.00  0.00    +0.000 N 
ATOM     36  H   UNL     1      -7.570  -1.521  20.211  0.00  0.00    +0.000 HD
ATOM     37  H   UNL     1      -8.730  -2.656  20.479  0.00  0.00    +0.000 HD
BRANCH  35  38
ATOM     38  C   UNL     1      -7.956  -1.881  22.227  0.00  0.00    +0.000 C 
ATOM     39  H   UNL     1      -8.804  -1.543  22.830  0.00  0.00    +0.000 HD
ATOM     40  H   UNL     1      -7.102  -1.226  22.396  0.00  0.00    +0.000 HD
BRANCH  38  41
ATOM     41  C   UNL     1      -7.597  -3.355  22.543  0.00  0.00    +0.000 C 
BRANCH  41  42
ATOM     42  C   UNL     1      -6.114  -3.683  22.343  0.00  0.00    +0.000 C 
ATOM     43  H   UNL     1      -5.752  -4.343  23.138  0.00  0.00    +0.000 HD
ATOM     44  H   UNL     1      -5.501  -2.778  22.358  0.00  0.00    +0.000 HD
ATOM     45  H   UNL     1      -5.927  -4.220  21.409  0.00  0.00    +0.000 HD
ENDBRANCH  41  42
BRANCH  41  46
ATOM     46  C   UNL     1      -7.986  -3.648  24.009  0.00  0.00    +0.000 C 
ATOM     47  H   UNL     1      -7.565  -2.904  24.695  0.00  0.00    +0.000 HD
ATOM     48  H   UNL     1      -7.597  -4.623  24.323  0.00  0.00    +0.000 HD
BRANCH  46  49
ATOM     49  O   UNL     1      -9.404  -3.671  24.143  0.00  0.00    +0.000 OA
ATOM     50  H   UNL     1      -9.799  -3.552  23.257  0.00  0.00    +0.000 HD
ENDBRANCH  46  49
ENDBRANCH  41  46
BRANCH  41  51
ATOM     51  O   UNL     1      -8.347  -4.164  21.629  0.00  0.00    +0.000 OA
ATOM     52  H   UNL     1      -8.475  -3.652  20.806  0.00  0.00    +0.000 HD
ENDBRANCH  41  51
ENDBRANCH  38  41
ENDBRANCH  35  38
ENDBRANCH   5  35
TORSDOF 13
ENDMDL
MODEL 9
REMARK VINA RESULT:    -5.540      2.832      6.716
REMARK INTER + INTRA:          -9.540
REMARK INTER:                  -8.801
REMARK INTRA:                  -0.739
REMARK UNBOUND:                -0.761
REMARK  Name = 
REMARK  13 active torsions:
REMARK  status: ('A' for Active; 'I' for Inactive)
REMARK    1  A    between atoms: C_1  and  C_2
REMARK    2  A    between atoms: C_2  and  C_3
REMARK    3  A    between atoms: C_2  and  C_4
REMARK    4  A    between atoms: C_2  and  O_5
REMARK    5  A    between atoms: O_5  and  C_6
REMARK    6  A    between atoms: N_8  and  C_9
REMARK    7  A    between atoms: C_13  and  N_14
REMARK    8  A    between atoms: N_14  and  C_15
REMARK    9  A    between atoms: C_15  and  C_16
REMARK   10  A    between atoms: C_16  and  C_17
REMARK   11  A    between atoms: C_16  and  O_18
REMARK   12  A    between atoms: C_16  and  C_19
REMARK   13  A    between atoms: C_19  and  O_20
REMARK                            x       y       z     vdW  Elec       q    Type
REMARK                         _______ _______ _______ _____ _____    ______ ____
ROOT
ATOM      1  C   UNL     1     -11.243  -6.034  17.306  0.00  0.00    +0.000 C 
ATOM      2  C   UNL     1     -10.311  -6.175  16.084  0.00  0.00    +0.000 C 
ATOM      3  C   UNL     1      -8.875  -6.516  16.471  0.00  0.00    +0.000 C 
ATOM      4  C   UNL     1      -8.828  -7.780  17.330  0.00  0.00    +0.000 C 
ATOM      5  C   UNL     1      -9.747  -7.700  18.560  0.00  0.00    +0.000 C 
ATOM      6  C   UNL     1     -11.179  -7.334  18.129  0.00  0.00    +0.000 C 
ATOM      7  H   UNL     1     -12.268  -5.894  16.939  0.00  0.00    +0.000 HD
ATOM      8  H   UNL     1     -10.314  -5.286  15.448  0.00  0.00    +0.000 HD
ATOM      9  H   UNL     1     -10.697  -6.984  15.447  0.00  0.00    +0.000 HD
ATOM     10  H   UNL     1      -8.417  -5.673  17.001  0.00  0.00    +0.000 HD
ATOM     11  H   UNL     1      -8.278  -6.667  15.562  0.00  0.00    +0.000 HD
ATOM     12  H   UNL     1      -7.794  -7.995  17.621  0.00  0.00    +0.000 HD
ATOM     13  H   UNL     1      -9.154  -8.626  16.706  0.00  0.00    +0.000 HD
ATOM     14  H   UNL     1      -9.734  -8.658  19.094  0.00  0.00    +0.000 HD
ATOM     15  H   UNL     1     -11.846  -7.269  18.995  0.00  0.00    +0.000 HD
ATOM     16  H   UNL     1     -11.575  -8.157  17.521  0.00  0.00    +0.000 HD
ENDROOT
BRANCH   1  19
ATOM     17  C   UNL     1     -11.687  -3.710  18.072  0.00  0.00    +0.000 C 
ATOM     18  O   UNL     1     -12.382  -3.427  17.109  0.00  0.00    +0.000 OA
ATOM     19  N   UNL     1     -10.979  -4.880  18.179  0.00  0.00    +0.000 N 
ATOM     20  H   UNL     1     -10.869  -5.069  19.170  0.00  0.00    +0.000 HD
BRANCH  17  21
ATOM     21  O   UNL     1     -11.517  -2.966  19.194  0.00  0.00    +0.000 OA
BRANCH  21  22
ATOM     22  C   UNL     1     -10.510  -1.905  19.190  0.00  0.00    +0.000 C 
BRANCH  22  23
ATOM     23  C   UNL     1      -9.811  -1.871  17.829  0.00  0.00    +0.000 C 
ATOM     24  H   UNL     1      -9.097  -1.045  17.767  0.00  0.00    +0.000 HD
ATOM     25  H   UNL     1     -10.549  -1.763  17.026  0.00  0.00    +0.000 HD
ATOM     26  H   UNL     1      -9.264  -2.795  17.624  0.00  0.00    +0.000 HD
ENDBRANCH  22  23
BRANCH  22  27
ATOM     27  C   UNL     1      -9.518  -2.078  20.349  0.00  0.00    +0.000 C 
ATOM     28  H   UNL     1      -9.356  -3.135  20.581  0.00  0.00    +0.000 HD
ATOM     29  H   UNL     1      -9.867  -1.598  21.267  0.00  0.00    +0.000 HD
ATOM     30  H   UNL     1      -8.552  -1.619  20.112  0.00  0.00    +0.000 HD
ENDBRANCH  22  27
BRANCH  22  31
ATOM     31  C   UNL     1     -11.234  -0.552  19.374  0.00  0.00    +0.000 C 
ATOM     32  H   UNL     1     -12.075  -0.456  18.674  0.00  0.00    +0.000 HD
ATOM     33  H   UNL     1     -10.565   0.300  19.211  0.00  0.00    +0.000 HD
ATOM     34  H   UNL     1     -11.632  -0.448  20.390  0.00  0.00    +0.000 HD
ENDBRANCH  22  31
ENDBRANCH  21  22
ENDBRANCH  17  21
ENDBRANCH   1  19
BRANCH   5  35
ATOM     35  N   UNL     1      -9.203  -6.673  19.520  0.00  0.00    +0.000 N 
ATOM     36  H   UNL     1      -9.758  -6.735  20.384  0.00  0.00    +0.000 HD
ATOM     37  H   UNL     1      -9.349  -5.714  19.162  0.00  0.00    +0.000 HD
BRANCH  35  38
ATOM     38  C   UNL     1      -7.736  -6.779  19.883  0.00  0.00    +0.000 C 
ATOM     39  H   UNL     1      -7.344  -7.600  19.274  0.00  0.00    +0.000 HD
ATOM     40  H   UNL     1      -7.661  -7.038  20.938  0.00  0.00    +0.000 HD
BRANCH  38  41
ATOM     41  C   UNL     1      -6.991  -5.455  19.580  0.00  0.00    +0.000 C 
BRANCH  41  42
ATOM     42  C   UNL     1      -6.622  -4.657  20.835  0.00  0.00    +0.000 C 
ATOM     43  H   UNL     1      -6.047  -3.763  20.572  0.00  0.00    +0.000 HD
ATOM     44  H   UNL     1      -6.012  -5.253  21.520  0.00  0.00    +0.000 HD
ATOM     45  H   UNL     1      -7.501  -4.292  21.373  0.00  0.00    +0.000 HD
ENDBRANCH  41  42
BRANCH  41  46
ATOM     46  C   UNL     1      -5.703  -5.787  18.796  0.00  0.00    +0.000 C 
ATOM     47  H   UNL     1      -5.857  -5.709  17.714  0.00  0.00    +0.000 HD
ATOM     48  H   UNL     1      -5.384  -6.815  18.996  0.00  0.00    +0.000 HD
BRANCH  46  49
ATOM     49  O   UNL     1      -4.652  -4.910  19.191  0.00  0.00    +0.000 OA
ATOM     50  H   UNL     1      -5.043  -4.166  19.690  0.00  0.00    +0.000 HD
ENDBRANCH  46  49
ENDBRANCH  41  46
BRANCH  41  51
ATOM     51  O   UNL     1      -7.886  -4.649  18.804  0.00  0.00    +0.000 OA
ATOM     52  H   UNL     1      -7.608  -4.702  17.868  0.00  0.00    +0.000 HD
ENDBRANCH  41  51
ENDBRANCH  38  41
ENDBRANCH  35  38
ENDBRANCH   5  35
TORSDOF 13
ENDMDL
