MODEL 1
REMARK VINA RESULT:    -9.962      0.000      0.000
REMARK INTER + INTRA:         -12.398
REMARK INTER:                 -12.000
REMARK INTRA:                  -0.398
REMARK UNBOUND:                -0.398
REMARK  Name = 
REMARK  4 active torsions:
REMARK  status: ('A' for Active; 'I' for Inactive)
REMARK    1  A    between atoms: N_1  and  C_2
REMARK    2  A    between atoms: N_4  and  C_5
REMARK    3  A    between atoms: C_13  and  N_14
REMARK    4  A    between atoms: N_14  and  C_15
REMARK                            x       y       z     vdW  Elec       q    Type
REMARK                         _______ _______ _______ _____ _____    ______ ____
ROOT
ATOM      1  C   UNL     1      -9.073  -6.623  16.941  0.00  0.00    +0.000 A 
ATOM      2  C   UNL     1      -9.635  -7.896  16.697  0.00  0.00    +0.000 A 
ATOM      3  N   UNL     1      -8.881  -8.801  15.929  0.00  0.00    +0.000 N 
ATOM      4  N   UNL     1     -10.868  -8.239  17.114  0.00  0.00    +0.000 NA
ATOM      5  C   UNL     1     -11.507  -7.344  17.878  0.00  0.00    +0.000 A 
ATOM      6  N   UNL     1     -11.012  -6.162  18.215  0.00  0.00    +0.000 N 
ATOM      7  C   UNL     1      -9.820  -5.760  17.756  0.00  0.00    +0.000 A 
ATOM      8  H   UNL     1      -7.904  -8.724  16.214  0.00  0.00    +0.000 HD
ATOM      9  H   UNL     1     -12.495  -7.603  18.247  0.00  0.00    +0.000 HD
ATOM     10  H   UNL     1     -11.522  -5.542  18.837  0.00  0.00    +0.000 HD
ENDROOT
BRANCH   3  11
ATOM     11  C   UNL     1      -9.299 -10.198  15.994  0.00  0.00    +0.000 C 
ATOM     12  C   UNL     1      -8.869 -10.846  17.312  0.00  0.00    +0.000 C 
ATOM     13  C   UNL     1      -8.689 -12.326  17.003  0.00  0.00    +0.000 C 
ATOM     14  C   UNL     1      -8.569 -12.440  15.487  0.00  0.00    +0.000 C 
ATOM     15  C   UNL     1      -8.525 -11.008  14.966  0.00  0.00    +0.000 C 
ATOM     16  H   UNL     1     -10.377 -10.322  15.817  0.00  0.00    +0.000 HD
ATOM     17  H   UNL     1      -9.599 -10.686  18.111  0.00  0.00    +0.000 HD
ATOM     18  H   UNL     1      -7.916 -10.429  17.661  0.00  0.00    +0.000 HD
ATOM     19  H   UNL     1      -9.549 -12.903  17.358  0.00  0.00    +0.000 HD
ATOM     20  H   UNL     1      -7.800 -12.719  17.509  0.00  0.00    +0.000 HD
ATOM     21  H   UNL     1      -9.440 -12.967  15.084  0.00  0.00    +0.000 HD
ATOM     22  H   UNL     1      -7.676 -13.004  15.191  0.00  0.00    +0.000 HD
ATOM     23  H   UNL     1      -8.961 -10.934  13.960  0.00  0.00    +0.000 HD
ATOM     24  H   UNL     1      -7.480 -10.676  14.884  0.00  0.00    +0.000 HD
ENDBRANCH   3  11
BRANCH   1  25
ATOM     25  N   UNL     1      -7.726  -6.367  16.583  0.00  0.00    +0.000 N 
ATOM     26  H   UNL     1      -7.620  -5.430  16.184  0.00  0.00    +0.000 HD
ATOM     27  H   UNL     1      -7.001  -6.533  17.269  0.00  0.00    +0.000 HD
ENDBRANCH   1  25
BRANCH   7  28
ATOM     28  N   UNL     1      -9.399  -4.471  18.091  0.00  0.00    +0.000 N 
ATOM     29  H   UNL     1      -9.947  -3.726  17.669  0.00  0.00    +0.000 HD
BRANCH  28  30
ATOM     30  C   UNL     1      -8.799  -4.061  19.301  0.00  0.00    +0.000 A 
ATOM     31  C   UNL     1      -7.764  -4.814  19.905  0.00  0.00    +0.000 A 
ATOM     32  C   UNL     1      -7.134  -4.375  21.075  0.00  0.00    +0.000 A 
ATOM     33  C   UNL     1      -7.555  -3.186  21.611  0.00  0.00    +0.000 A 
ATOM     34  C   UNL     1      -8.575  -2.456  21.049  0.00  0.00    +0.000 A 
ATOM     35  C   UNL     1      -9.221  -2.870  19.904  0.00  0.00    +0.000 A 
ATOM     36  O   UNL     1      -8.830  -1.313  21.739  0.00  0.00    +0.000 OA
ATOM     37  C   UNL     1      -7.768  -1.345  22.719  0.00  0.00    +0.000 C 
ATOM     38  O   UNL     1      -7.043  -2.594  22.721  0.00  0.00    +0.000 OA
ATOM     39  H   UNL     1      -7.457  -5.777  19.506  0.00  0.00    +0.000 HD
ATOM     40  H   UNL     1      -6.349  -4.953  21.548  0.00  0.00    +0.000 HD
ATOM     41  H   UNL     1     -10.017  -2.257  19.481  0.00  0.00    +0.000 HD
ATOM     42  H   UNL     1      -8.188  -1.174  23.715  0.00  0.00    +0.000 HD
ATOM     43  H   UNL     1      -7.062  -0.539  22.486  0.00  0.00    +0.000 HD
ENDBRANCH  28  30
ENDBRANCH   7  28
TORSDOF 4
ENDMDL
MODEL 2
REMARK VINA RESULT:    -9.733      3.492      7.966
REMARK INTER + INTRA:         -12.123
REMARK INTER:                 -11.706
REMARK INTRA:                  -0.417
REMARK UNBOUND:                -0.398
REMARK  Name = 
REMARK  4 active torsions:
REMARK  status: ('A' for Active; 'I' for Inactive)
REMARK    1  A    between atoms: N_1  and  C_2
REMARK    2  A    between atoms: N_4  and  C_5
REMARK    3  A    between atoms: C_13  and  N_14
REMARK    4  A    between atoms: N_14  and  C_15
REMARK                            x       y       z     vdW  Elec       q    Type
REMARK                         _______ _______ _______ _____ _____    ______ ____
ROOT
ATOM      1  C   UNL     1      -9.055  -6.284  17.036  0.00  0.00    +0.000 A 
ATOM      2  C   UNL     1      -9.758  -5.295  17.760  0.00  0.00    +0.000 A 
ATOM      3  N   UNL     1      -9.015  -4.473  18.626  0.00  0.00    +0.000 N 
ATOM      4  N   UNL     1     -11.096  -5.160  17.696  0.00  0.00    +0.000 NA
ATOM      5  C   UNL     1     -11.731  -5.946  16.818  0.00  0.00    +0.000 A 
ATOM      6  N   UNL     1     -11.130  -6.841  16.048  0.00  0.00    +0.000 N 
ATOM      7  C   UNL     1      -9.811  -7.052  16.140  0.00  0.00    +0.000 A 
ATOM      8  H   UNL     1      -8.137  -4.234  18.162  0.00  0.00    +0.000 HD
ATOM      9  H   UNL     1     -12.808  -5.844  16.728  0.00  0.00    +0.000 HD
ATOM     10  H   UNL     1     -11.656  -7.378  15.364  0.00  0.00    +0.000 HD
ENDROOT
BRANCH   3  11
ATOM     11  C   UNL     1      -9.676  -3.252  19.073  0.00  0.00    +0.000 C 
ATOM     12  C   UNL     1      -9.534  -2.131  18.041  0.00  0.00    +0.000 C 
ATOM     13  C   UNL     1      -9.580  -0.832  18.835  0.00  0.00    +0.000 C 
ATOM     14  C   UNL     1      -9.296  -1.202  20.286  0.00  0.00    +0.000 C 
ATOM     15  C   UNL     1      -8.937  -2.684  20.274  0.00  0.00    +0.000 C 
ATOM     16  H   UNL     1     -10.729  -3.420  19.343  0.00  0.00    +0.000 HD
ATOM     17  H   UNL     1     -10.318  -2.167  17.279  0.00  0.00    +0.000 HD
ATOM     18  H   UNL     1      -8.573  -2.203  17.516  0.00  0.00    +0.000 HD
ATOM     19  H   UNL     1     -10.566  -0.362  18.751  0.00  0.00    +0.000 HD
ATOM     20  H   UNL     1      -8.844  -0.119  18.448  0.00  0.00    +0.000 HD
ATOM     21  H   UNL     1     -10.189  -1.031  20.895  0.00  0.00    +0.000 HD
ATOM     22  H   UNL     1      -8.487  -0.595  20.710  0.00  0.00    +0.000 HD
ATOM     23  H   UNL     1      -9.225  -3.174  21.214  0.00  0.00    +0.000 HD
ATOM     24  H   UNL     1      -7.847  -2.800  20.176  0.00  0.00    +0.000 HD
ENDBRANCH   3  11
BRANCH   1  25
ATOM     25  N   UNL     1      -7.638  -6.295  17.052  0.00  0.00    +0.000 N 
ATOM     26  H   UNL     1      -7.255  -5.960  16.164  0.00  0.00    +0.000 HD
ATOM     27  H   UNL     1      -7.158  -5.849  17.823  0.00  0.00    +0.000 HD
ENDBRANCH   1  25
BRANCH   7  28
ATOM     28  N   UNL     1      -9.261  -8.066  15.350  0.00  0.00    +0.000 N 
ATOM     29  H   UNL     1      -8.546  -7.752  14.699  0.00  0.00    +0.000 HD
BRANCH  28  30
ATOM     30  C   UNL     1      -9.089  -9.421  15.706  0.00  0.00    +0.000 A 
ATOM     31  C   UNL     1      -8.867 -10.419  14.728  0.00  0.00    +0.000 A 
ATOM     32  C   UNL     1      -8.642 -11.753  15.090  0.00  0.00    +0.000 A 
ATOM     33  C   UNL     1      -8.642 -12.053  16.427  0.00  0.00    +0.000 A 
ATOM     34  C   UNL     1      -8.881 -11.098  17.386  0.00  0.00    +0.000 A 
ATOM     35  C   UNL     1      -9.117  -9.780  17.059  0.00  0.00    +0.000 A 
ATOM     36  O   UNL     1      -8.834 -11.611  18.645  0.00  0.00    +0.000 OA
ATOM     37  C   UNL     1      -8.409 -12.965  18.370  0.00  0.00    +0.000 C 
ATOM     38  O   UNL     1      -8.415 -13.281  16.961  0.00  0.00    +0.000 OA
ATOM     39  H   UNL     1      -8.908 -10.192  13.667  0.00  0.00    +0.000 HD
ATOM     40  H   UNL     1      -8.483 -12.523  14.345  0.00  0.00    +0.000 HD
ATOM     41  H   UNL     1      -9.289  -9.050  17.849  0.00  0.00    +0.000 HD
ATOM     42  H   UNL     1      -9.065 -13.665  18.896  0.00  0.00    +0.000 HD
ATOM     43  H   UNL     1      -7.385 -13.086  18.744  0.00  0.00    +0.000 HD
ENDBRANCH  28  30
ENDBRANCH   7  28
TORSDOF 4
ENDMDL
MODEL 3
REMARK VINA RESULT:    -9.699      3.911      8.150
REMARK INTER + INTRA:         -12.082
REMARK INTER:                 -11.551
REMARK INTRA:                  -0.531
REMARK UNBOUND:                -0.398
REMARK  Name = 
REMARK  4 active torsions:
REMARK  status: ('A' for Active; 'I' for Inactive)
REMARK    1  A    between atoms: N_1  and  C_2
REMARK    2  A    between atoms: N_4  and  C_5
REMARK    3  A    between atoms: C_13  and  N_14
REMARK    4  A    between atoms: N_14  and  C_15
REMARK                            x       y       z     vdW  Elec       q    Type
REMARK                         _______ _______ _______ _____ _____    ______ ____
ROOT
ATOM      1  C   UNL     1      -9.441  -7.121  19.136  0.00  0.00    +0.000 A 
ATOM      2  C   UNL     1      -8.897  -5.842  19.392  0.00  0.00    +0.000 A 
ATOM      3  N   UNL     1      -8.128  -5.685  20.559  0.00  0.00    +0.000 N 
ATOM      4  N   UNL     1      -9.139  -4.778  18.604  0.00  0.00    +0.000 NA
ATOM      5  C   UNL     1      -9.841  -5.013  17.488  0.00  0.00    +0.000 A 
ATOM      6  N   UNL     1     -10.316  -6.200  17.141  0.00  0.00    +0.000 N 
ATOM      7  C   UNL     1     -10.156  -7.264  17.939  0.00  0.00    +0.000 A 
ATOM      8  H   UNL     1      -7.545  -6.515  20.670  0.00  0.00    +0.000 HD
ATOM      9  H   UNL     1     -10.034  -4.177  16.821  0.00  0.00    +0.000 HD
ATOM     10  H   UNL     1     -10.801  -6.331  16.259  0.00  0.00    +0.000 HD
ENDROOT
BRANCH   3  11
ATOM     11  C   UNL     1      -7.292  -4.491  20.618  0.00  0.00    +0.000 C 
ATOM     12  C   UNL     1      -5.805  -4.850  20.567  0.00  0.00    +0.000 C 
ATOM     13  C   UNL     1      -5.087  -3.739  21.321  0.00  0.00    +0.000 C 
ATOM     14  C   UNL     1      -6.147  -3.029  22.157  0.00  0.00    +0.000 C 
ATOM     15  C   UNL     1      -7.424  -3.845  21.988  0.00  0.00    +0.000 C 
ATOM     16  H   UNL     1      -7.555  -3.755  19.844  0.00  0.00    +0.000 HD
ATOM     17  H   UNL     1      -5.436  -4.946  19.542  0.00  0.00    +0.000 HD
ATOM     18  H   UNL     1      -5.617  -5.809  21.066  0.00  0.00    +0.000 HD
ATOM     19  H   UNL     1      -4.623  -3.034  20.623  0.00  0.00    +0.000 HD
ATOM     20  H   UNL     1      -4.290  -4.152  21.947  0.00  0.00    +0.000 HD
ATOM     21  H   UNL     1      -6.293  -2.010  21.785  0.00  0.00    +0.000 HD
ATOM     22  H   UNL     1      -5.852  -2.956  23.211  0.00  0.00    +0.000 HD
ATOM     23  H   UNL     1      -8.318  -3.212  22.068  0.00  0.00    +0.000 HD
ATOM     24  H   UNL     1      -7.493  -4.595  22.789  0.00  0.00    +0.000 HD
ENDBRANCH   3  11
BRANCH   1  25
ATOM     25  N   UNL     1      -9.049  -8.225  19.934  0.00  0.00    +0.000 N 
ATOM     26  H   UNL     1      -8.444  -8.864  19.410  0.00  0.00    +0.000 HD
ATOM     27  H   UNL     1      -8.653  -8.048  20.848  0.00  0.00    +0.000 HD
ENDBRANCH   1  25
BRANCH   7  28
ATOM     28  N   UNL     1     -10.751  -8.465  17.543  0.00  0.00    +0.000 N 
ATOM     29  H   UNL     1     -11.757  -8.412  17.410  0.00  0.00    +0.000 HD
BRANCH  28  30
ATOM     30  C   UNL     1     -10.169  -9.482  16.757  0.00  0.00    +0.000 A 
ATOM     31  C   UNL     1     -10.012  -9.336  15.358  0.00  0.00    +0.000 A 
ATOM     32  C   UNL     1      -9.385 -10.325  14.590  0.00  0.00    +0.000 A 
ATOM     33  C   UNL     1      -8.925 -11.436  15.246  0.00  0.00    +0.000 A 
ATOM     34  C   UNL     1      -9.091 -11.602  16.600  0.00  0.00    +0.000 A 
ATOM     35  C   UNL     1      -9.716 -10.651  17.379  0.00  0.00    +0.000 A 
ATOM     36  O   UNL     1      -8.561 -12.773  17.044  0.00  0.00    +0.000 OA
ATOM     37  C   UNL     1      -7.928 -13.258  15.838  0.00  0.00    +0.000 C 
ATOM     38  O   UNL     1      -8.270 -12.479  14.672  0.00  0.00    +0.000 OA
ATOM     39  H   UNL     1     -10.414  -8.476  14.829  0.00  0.00    +0.000 HD
ATOM     40  H   UNL     1      -9.273 -10.224  13.517  0.00  0.00    +0.000 HD
ATOM     41  H   UNL     1      -9.818 -10.813  18.451  0.00  0.00    +0.000 HD
ATOM     42  H   UNL     1      -8.219 -14.299  15.670  0.00  0.00    +0.000 HD
ATOM     43  H   UNL     1      -6.841 -13.209  15.978  0.00  0.00    +0.000 HD
ENDBRANCH  28  30
ENDBRANCH   7  28
TORSDOF 4
ENDMDL
MODEL 4
REMARK VINA RESULT:    -9.444      3.639      8.306
REMARK INTER + INTRA:         -11.775
REMARK INTER:                 -11.376
REMARK INTRA:                  -0.399
REMARK UNBOUND:                -0.398
REMARK  Name = 
REMARK  4 active torsions:
REMARK  status: ('A' for Active; 'I' for Inactive)
REMARK    1  A    between atoms: N_1  and  C_2
REMARK    2  A    between atoms: N_4  and  C_5
REMARK    3  A    between atoms: C_13  and  N_14
REMARK    4  A    between atoms: N_14  and  C_15
REMARK                            x       y       z     vdW  Elec       q    Type
REMARK                         _______ _______ _______ _____ _____    ______ ____
ROOT
ATOM      1  C   UNL     1      -9.548  -5.572  18.596  0.00  0.00    +0.000 A 
ATOM      2  C   UNL     1      -8.585  -4.799  19.281  0.00  0.00    +0.000 A 
ATOM      3  N   UNL     1      -9.051  -3.728  20.065  0.00  0.00    +0.000 N 
ATOM      4  N   UNL     1      -7.262  -5.010  19.159  0.00  0.00    +0.000 NA
ATOM      5  C   UNL     1      -6.895  -6.073  18.433  0.00  0.00    +0.000 A 
ATOM      6  N   UNL     1      -7.743  -6.891  17.827  0.00  0.00    +0.000 N 
ATOM      7  C   UNL     1      -9.062  -6.667  17.867  0.00  0.00    +0.000 A 
ATOM      8  H   UNL     1      -9.895  -4.033  20.551  0.00  0.00    +0.000 HD
ATOM      9  H   UNL     1      -5.834  -6.282  18.334  0.00  0.00    +0.000 HD
ATOM     10  H   UNL     1      -7.410  -7.711  17.328  0.00  0.00    +0.000 HD
ENDROOT
BRANCH   3  11
ATOM     11  C   UNL     1      -8.103  -3.183  21.031  0.00  0.00    +0.000 C 
ATOM     12  C   UNL     1      -8.176  -3.929  22.365  0.00  0.00    +0.000 C 
ATOM     13  C   UNL     1      -7.757  -2.920  23.425  0.00  0.00    +0.000 C 
ATOM     14  C   UNL     1      -7.887  -1.542  22.786  0.00  0.00    +0.000 C 
ATOM     15  C   UNL     1      -8.528  -1.776  21.422  0.00  0.00    +0.000 C 
ATOM     16  H   UNL     1      -7.075  -3.155  20.640  0.00  0.00    +0.000 HD
ATOM     17  H   UNL     1      -7.537  -4.818  22.378  0.00  0.00    +0.000 HD
ATOM     18  H   UNL     1      -9.200  -4.268  22.568  0.00  0.00    +0.000 HD
ATOM     19  H   UNL     1      -6.722  -3.095  23.738  0.00  0.00    +0.000 HD
ATOM     20  H   UNL     1      -8.388  -3.013  24.315  0.00  0.00    +0.000 HD
ATOM     21  H   UNL     1      -6.897  -1.091  22.670  0.00  0.00    +0.000 HD
ATOM     22  H   UNL     1      -8.489  -0.863  23.402  0.00  0.00    +0.000 HD
ATOM     23  H   UNL     1      -8.204  -1.022  20.692  0.00  0.00    +0.000 HD
ATOM     24  H   UNL     1      -9.621  -1.687  21.507  0.00  0.00    +0.000 HD
ENDBRANCH   3  11
BRANCH   1  25
ATOM     25  N   UNL     1     -10.927  -5.378  18.863  0.00  0.00    +0.000 N 
ATOM     26  H   UNL     1     -11.299  -6.126  19.455  0.00  0.00    +0.000 HD
ATOM     27  H   UNL     1     -11.232  -4.479  19.212  0.00  0.00    +0.000 HD
ENDBRANCH   1  25
BRANCH   7  28
ATOM     28  N   UNL     1      -9.888  -7.528  17.140  0.00  0.00    +0.000 N 
ATOM     29  H   UNL     1     -10.522  -7.060  16.497  0.00  0.00    +0.000 HD
BRANCH  28  30
ATOM     30  C   UNL     1      -9.586  -8.841  16.719  0.00  0.00    +0.000 A 
ATOM     31  C   UNL     1      -9.385  -9.151  15.353  0.00  0.00    +0.000 A 
ATOM     32  C   UNL     1      -9.031 -10.442  14.946  0.00  0.00    +0.000 A 
ATOM     33  C   UNL     1      -8.883 -11.393  15.921  0.00  0.00    +0.000 A 
ATOM     34  C   UNL     1      -9.098 -11.113  17.249  0.00  0.00    +0.000 A 
ATOM     35  C   UNL     1      -9.459  -9.853  17.677  0.00  0.00    +0.000 A 
ATOM     36  O   UNL     1      -8.896 -12.198  18.043  0.00  0.00    +0.000 OA
ATOM     37  C   UNL     1      -8.401 -13.153  17.077  0.00  0.00    +0.000 C 
ATOM     38  O   UNL     1      -8.518 -12.686  15.716  0.00  0.00    +0.000 OA
ATOM     39  H   UNL     1      -9.543  -8.410  14.574  0.00  0.00    +0.000 HD
ATOM     40  H   UNL     1      -8.887 -10.688  13.900  0.00  0.00    +0.000 HD
ATOM     41  H   UNL     1      -9.608  -9.666  18.740  0.00  0.00    +0.000 HD
ATOM     42  H   UNL     1      -8.952 -14.092  17.182  0.00  0.00    +0.000 HD
ATOM     43  H   UNL     1      -7.341 -13.335  17.288  0.00  0.00    +0.000 HD
ENDBRANCH  28  30
ENDBRANCH   7  28
TORSDOF 4
ENDMDL
MODEL 5
REMARK VINA RESULT:    -9.405      3.066      4.135
REMARK INTER + INTRA:         -11.728
REMARK INTER:                 -11.287
REMARK INTRA:                  -0.441
REMARK UNBOUND:                -0.398
REMARK  Name = 
REMARK  4 active torsions:
REMARK  status: ('A' for Active; 'I' for Inactive)
REMARK    1  A    between atoms: N_1  and  C_2
REMARK    2  A    between atoms: N_4  and  C_5
REMARK    3  A    between atoms: C_13  and  N_14
REMARK    4  A    between atoms: N_14  and  C_15
REMARK                            x       y       z     vdW  Elec       q    Type
REMARK                         _______ _______ _______ _____ _____    ______ ____
ROOT
ATOM      1  C   UNL     1     -10.751  -7.247  17.872  0.00  0.00    +0.000 A 
ATOM      2  C   UNL     1      -9.835  -8.320  17.801  0.00  0.00    +0.000 A 
ATOM      3  N   UNL     1     -10.129  -9.366  16.907  0.00  0.00    +0.000 N 
ATOM      4  N   UNL     1      -8.747  -8.402  18.590  0.00  0.00    +0.000 NA
ATOM      5  C   UNL     1      -8.509  -7.350  19.383  0.00  0.00    +0.000 A 
ATOM      6  N   UNL     1      -9.278  -6.273  19.446  0.00  0.00    +0.000 N 
ATOM      7  C   UNL     1     -10.406  -6.192  18.729  0.00  0.00    +0.000 A 
ATOM      8  H   UNL     1     -10.497  -8.956  16.048  0.00  0.00    +0.000 HD
ATOM      9  H   UNL     1      -7.626  -7.378  20.015  0.00  0.00    +0.000 HD
ATOM     10  H   UNL     1      -9.023  -5.483  20.031  0.00  0.00    +0.000 HD
ENDROOT
BRANCH   3  11
ATOM     11  C   UNL     1      -9.022 -10.261  16.584  0.00  0.00    +0.000 C 
ATOM     12  C   UNL     1      -9.069 -10.698  15.119  0.00  0.00    +0.000 C 
ATOM     13  C   UNL     1      -8.409 -12.070  15.077  0.00  0.00    +0.000 C 
ATOM     14  C   UNL     1      -8.403 -12.590  16.510  0.00  0.00    +0.000 C 
ATOM     15  C   UNL     1      -9.202 -11.578  17.323  0.00  0.00    +0.000 C 
ATOM     16  H   UNL     1      -8.044  -9.830  16.845  0.00  0.00    +0.000 HD
ATOM     17  H   UNL     1      -8.566  -9.987  14.457  0.00  0.00    +0.000 HD
ATOM     18  H   UNL     1     -10.106 -10.783  14.769  0.00  0.00    +0.000 HD
ATOM     19  H   UNL     1      -7.384 -11.994  14.699  0.00  0.00    +0.000 HD
ATOM     20  H   UNL     1      -8.957 -12.740  14.406  0.00  0.00    +0.000 HD
ATOM     21  H   UNL     1      -7.375 -12.651  16.879  0.00  0.00    +0.000 HD
ATOM     22  H   UNL     1      -8.838 -13.595  16.579  0.00  0.00    +0.000 HD
ATOM     23  H   UNL     1      -8.847 -11.528  18.362  0.00  0.00    +0.000 HD
ATOM     24  H   UNL     1     -10.257 -11.884  17.362  0.00  0.00    +0.000 HD
ENDBRANCH   3  11
BRANCH   1  25
ATOM     25  N   UNL     1     -11.807  -7.158  16.930  0.00  0.00    +0.000 N 
ATOM     26  H   UNL     1     -11.864  -8.005  16.357  0.00  0.00    +0.000 HD
ATOM     27  H   UNL     1     -12.729  -6.901  17.258  0.00  0.00    +0.000 HD
ENDBRANCH   1  25
BRANCH   7  28
ATOM     28  N   UNL     1     -11.205  -5.059  18.906  0.00  0.00    +0.000 N 
ATOM     29  H   UNL     1     -11.545  -4.928  19.856  0.00  0.00    +0.000 HD
BRANCH  28  30
ATOM     30  C   UNL     1     -11.113  -3.837  18.207  0.00  0.00    +0.000 A 
ATOM     31  C   UNL     1      -9.968  -3.011  18.310  0.00  0.00    +0.000 A 
ATOM     32  C   UNL     1      -9.858  -1.827  17.572  0.00  0.00    +0.000 A 
ATOM     33  C   UNL     1     -10.899  -1.500  16.743  0.00  0.00    +0.000 A 
ATOM     34  C   UNL     1     -12.027  -2.280  16.651  0.00  0.00    +0.000 A 
ATOM     35  C   UNL     1     -12.168  -3.445  17.375  0.00  0.00    +0.000 A 
ATOM     36  O   UNL     1     -12.933  -1.773  15.772  0.00  0.00    +0.000 OA
ATOM     37  C   UNL     1     -12.188  -0.661  15.227  0.00  0.00    +0.000 C 
ATOM     38  O   UNL     1     -10.954  -0.410  15.935  0.00  0.00    +0.000 OA
ATOM     39  H   UNL     1      -9.160  -3.245  18.998  0.00  0.00    +0.000 HD
ATOM     40  H   UNL     1      -8.989  -1.185  17.656  0.00  0.00    +0.000 HD
ATOM     41  H   UNL     1     -13.072  -4.043  17.265  0.00  0.00    +0.000 HD
ATOM     42  H   UNL     1     -12.807   0.240  15.258  0.00  0.00    +0.000 HD
ATOM     43  H   UNL     1     -11.944  -0.890  14.183  0.00  0.00    +0.000 HD
ENDBRANCH  28  30
ENDBRANCH   7  28
TORSDOF 4
ENDMDL
MODEL 6
REMARK VINA RESULT:    -9.361      1.968      2.823
REMARK INTER + INTRA:         -11.675
REMARK INTER:                 -11.709
REMARK INTRA:                   0.034
REMARK UNBOUND:                -0.398
REMARK  Name = 
REMARK  4 active torsions:
REMARK  status: ('A' for Active; 'I' for Inactive)
REMARK    1  A    between atoms: N_1  and  C_2
REMARK    2  A    between atoms: N_4  and  C_5
REMARK    3  A    between atoms: C_13  and  N_14
REMARK    4  A    between atoms: N_14  and  C_15
REMARK                            x       y       z     vdW  Elec       q    Type
REMARK                         _______ _______ _______ _____ _____    ______ ____
ROOT
ATOM      1  C   UNL     1      -8.842  -9.256  18.531  0.00  0.00    +0.000 A 
ATOM      2  C   UNL     1      -8.993 -10.218  17.507  0.00  0.00    +0.000 A 
ATOM      3  N   UNL     1      -8.679 -11.553  17.819  0.00  0.00    +0.000 N 
ATOM      4  N   UNL     1      -9.358  -9.894  16.253  0.00  0.00    +0.000 NA
ATOM      5  C   UNL     1      -9.683  -8.613  16.041  0.00  0.00    +0.000 A 
ATOM      6  N   UNL     1      -9.643  -7.670  16.971  0.00  0.00    +0.000 N 
ATOM      7  C   UNL     1      -9.214  -7.943  18.209  0.00  0.00    +0.000 A 
ATOM      8  H   UNL     1      -9.030 -11.751  18.757  0.00  0.00    +0.000 HD
ATOM      9  H   UNL     1     -10.003  -8.326  15.044  0.00  0.00    +0.000 HD
ATOM     10  H   UNL     1      -9.947  -6.722  16.766  0.00  0.00    +0.000 HD
ENDROOT
BRANCH   3  11
ATOM     11  C   UNL     1      -9.177 -12.561  16.890  0.00  0.00    +0.000 C 
ATOM     12  C   UNL     1      -8.970 -13.975  17.438  0.00  0.00    +0.000 C 
ATOM     13  C   UNL     1      -8.830 -14.873  16.217  0.00  0.00    +0.000 C 
ATOM     14  C   UNL     1      -8.508 -13.958  15.041  0.00  0.00    +0.000 C 
ATOM     15  C   UNL     1      -8.314 -12.568  15.638  0.00  0.00    +0.000 C 
ATOM     16  H   UNL     1     -10.226 -12.388  16.606  0.00  0.00    +0.000 HD
ATOM     17  H   UNL     1      -9.794 -14.295  18.082  0.00  0.00    +0.000 HD
ATOM     18  H   UNL     1      -8.053 -14.031  18.039  0.00  0.00    +0.000 HD
ATOM     19  H   UNL     1      -9.761 -15.417  16.028  0.00  0.00    +0.000 HD
ATOM     20  H   UNL     1      -8.043 -15.618  16.376  0.00  0.00    +0.000 HD
ATOM     21  H   UNL     1      -9.342 -13.956  14.332  0.00  0.00    +0.000 HD
ATOM     22  H   UNL     1      -7.615 -14.291  14.498  0.00  0.00    +0.000 HD
ATOM     23  H   UNL     1      -8.602 -11.782  14.926  0.00  0.00    +0.000 HD
ATOM     24  H   UNL     1      -7.251 -12.411  15.872  0.00  0.00    +0.000 HD
ENDBRANCH   3  11
BRANCH   1  25
ATOM     25  N   UNL     1      -8.575  -9.676  19.858  0.00  0.00    +0.000 N 
ATOM     26  H   UNL     1      -8.377 -10.680  19.897  0.00  0.00    +0.000 HD
ATOM     27  H   UNL     1      -7.886  -9.169  20.399  0.00  0.00    +0.000 HD
ENDBRANCH   1  25
BRANCH   7  28
ATOM     28  N   UNL     1      -9.127  -6.881  19.114  0.00  0.00    +0.000 N 
ATOM     29  H   UNL     1      -9.832  -6.893  19.846  0.00  0.00    +0.000 HD
BRANCH  28  30
ATOM     30  C   UNL     1      -7.956  -6.207  19.522  0.00  0.00    +0.000 A 
ATOM     31  C   UNL     1      -6.734  -6.361  18.824  0.00  0.00    +0.000 A 
ATOM     32  C   UNL     1      -5.589  -5.648  19.199  0.00  0.00    +0.000 A 
ATOM     33  C   UNL     1      -5.698  -4.794  20.265  0.00  0.00    +0.000 A 
ATOM     34  C   UNL     1      -6.872  -4.652  20.966  0.00  0.00    +0.000 A 
ATOM     35  C   UNL     1      -8.011  -5.350  20.627  0.00  0.00    +0.000 A 
ATOM     36  O   UNL     1      -6.759  -3.755  21.982  0.00  0.00    +0.000 OA
ATOM     37  C   UNL     1      -5.422  -3.254  21.753  0.00  0.00    +0.000 C 
ATOM     38  O   UNL     1      -4.705  -4.004  20.750  0.00  0.00    +0.000 OA
ATOM     39  H   UNL     1      -6.633  -7.069  18.006  0.00  0.00    +0.000 HD
ATOM     40  H   UNL     1      -4.648  -5.771  18.676  0.00  0.00    +0.000 HD
ATOM     41  H   UNL     1      -8.926  -5.202  21.199  0.00  0.00    +0.000 HD
ATOM     42  H   UNL     1      -4.860  -3.282  22.691  0.00  0.00    +0.000 HD
ATOM     43  H   UNL     1      -5.499  -2.214  21.415  0.00  0.00    +0.000 HD
ENDBRANCH  28  30
ENDBRANCH   7  28
TORSDOF 4
ENDMDL
MODEL 7
REMARK VINA RESULT:    -9.337      2.284      3.169
REMARK INTER + INTRA:         -11.645
REMARK INTER:                 -11.256
REMARK INTRA:                  -0.389
REMARK UNBOUND:                -0.398
REMARK  Name = 
REMARK  4 active torsions:
REMARK  status: ('A' for Active; 'I' for Inactive)
REMARK    1  A    between atoms: N_1  and  C_2
REMARK    2  A    between atoms: N_4  and  C_5
REMARK    3  A    between atoms: C_13  and  N_14
REMARK    4  A    between atoms: N_14  and  C_15
REMARK                            x       y       z     vdW  Elec       q    Type
REMARK                         _______ _______ _______ _____ _____    ______ ____
ROOT
ATOM      1  C   UNL     1     -10.627  -7.392  17.534  0.00  0.00    +0.000 A 
ATOM      2  C   UNL     1      -9.815  -8.547  17.604  0.00  0.00    +0.000 A 
ATOM      3  N   UNL     1      -9.983  -9.520  16.602  0.00  0.00    +0.000 N 
ATOM      4  N   UNL     1      -8.952  -8.769  18.612  0.00  0.00    +0.000 NA
ATOM      5  C   UNL     1      -8.814  -7.781  19.504  0.00  0.00    +0.000 A 
ATOM      6  N   UNL     1      -9.481  -6.637  19.460  0.00  0.00    +0.000 N 
ATOM      7  C   UNL     1     -10.400  -6.414  18.512  0.00  0.00    +0.000 A 
ATOM      8  H   UNL     1     -10.106  -9.040  15.710  0.00  0.00    +0.000 HD
ATOM      9  H   UNL     1      -8.108  -7.922  20.317  0.00  0.00    +0.000 HD
ATOM     10  H   UNL     1      -9.301  -5.901  20.137  0.00  0.00    +0.000 HD
ENDROOT
BRANCH   3  11
ATOM     11  C   UNL     1      -8.914 -10.505  16.482  0.00  0.00    +0.000 C 
ATOM     12  C   UNL     1      -8.794 -11.025  15.047  0.00  0.00    +0.000 C 
ATOM     13  C   UNL     1      -8.239 -12.438  15.167  0.00  0.00    +0.000 C 
ATOM     14  C   UNL     1      -8.467 -12.871  16.610  0.00  0.00    +0.000 C 
ATOM     15  C   UNL     1      -9.291 -11.760  17.252  0.00  0.00    +0.000 C 
ATOM     16  H   UNL     1      -7.951 -10.126  16.855  0.00  0.00    +0.000 HD
ATOM     17  H   UNL     1      -8.154 -10.390  14.428  0.00  0.00    +0.000 HD
ATOM     18  H   UNL     1      -9.777 -11.060  14.561  0.00  0.00    +0.000 HD
ATOM     19  H   UNL     1      -7.169 -12.454  14.932  0.00  0.00    +0.000 HD
ATOM     20  H   UNL     1      -8.739 -13.108  14.460  0.00  0.00    +0.000 HD
ATOM     21  H   UNL     1      -7.506 -12.980  17.123  0.00  0.00    +0.000 HD
ATOM     22  H   UNL     1      -8.982 -13.839  16.668  0.00  0.00    +0.000 HD
ATOM     23  H   UNL     1      -9.077 -11.673  18.327  0.00  0.00    +0.000 HD
ATOM     24  H   UNL     1     -10.362 -11.992  17.159  0.00  0.00    +0.000 HD
ENDBRANCH   3  11
BRANCH   1  25
ATOM     25  N   UNL     1     -11.424  -7.160  16.385  0.00  0.00    +0.000 N 
ATOM     26  H   UNL     1     -12.257  -6.612  16.616  0.00  0.00    +0.000 HD
ATOM     27  H   UNL     1     -10.983  -6.784  15.556  0.00  0.00    +0.000 HD
ENDBRANCH   1  25
BRANCH   7  28
ATOM     28  N   UNL     1     -11.118  -5.216  18.576  0.00  0.00    +0.000 N 
ATOM     29  H   UNL     1     -11.777  -5.161  19.349  0.00  0.00    +0.000 HD
BRANCH  28  30
ATOM     30  C   UNL     1     -10.678  -3.940  18.167  0.00  0.00    +0.000 A 
ATOM     31  C   UNL     1     -10.824  -3.501  16.829  0.00  0.00    +0.000 A 
ATOM     32  C   UNL     1     -10.436  -2.213  16.442  0.00  0.00    +0.000 A 
ATOM     33  C   UNL     1      -9.913  -1.393  17.407  0.00  0.00    +0.000 A 
ATOM     34  C   UNL     1      -9.743  -1.814  18.704  0.00  0.00    +0.000 A 
ATOM     35  C   UNL     1     -10.105  -3.080  19.112  0.00  0.00    +0.000 A 
ATOM     36  O   UNL     1      -9.210  -0.844  19.494  0.00  0.00    +0.000 OA
ATOM     37  C   UNL     1      -9.190   0.272  18.576  0.00  0.00    +0.000 C 
ATOM     38  O   UNL     1      -9.511  -0.109  17.221  0.00  0.00    +0.000 OA
ATOM     39  H   UNL     1     -11.198  -4.162  16.053  0.00  0.00    +0.000 HD
ATOM     40  H   UNL     1     -10.535  -1.875  15.416  0.00  0.00    +0.000 HD
ATOM     41  H   UNL     1      -9.966  -3.373  20.152  0.00  0.00    +0.000 HD
ATOM     42  H   UNL     1      -8.199   0.736  18.592  0.00  0.00    +0.000 HD
ATOM     43  H   UNL     1      -9.933   1.006  18.911  0.00  0.00    +0.000 HD
ENDBRANCH  28  30
ENDBRANCH   7  28
TORSDOF 4
ENDMDL
MODEL 8
REMARK VINA RESULT:    -9.094      3.688      8.531
REMARK INTER + INTRA:         -11.353
REMARK INTER:                 -10.942
REMARK INTRA:                  -0.411
REMARK UNBOUND:                -0.398
REMARK  Name = 
REMARK  4 active torsions:
REMARK  status: ('A' for Active; 'I' for Inactive)
REMARK    1  A    between atoms: N_1  and  C_2
REMARK    2  A    between atoms: N_4  and  C_5
REMARK    3  A    between atoms: C_13  and  N_14
REMARK    4  A    between atoms: N_14  and  C_15
REMARK                            x       y       z     vdW  Elec       q    Type
REMARK                         _______ _______ _______ _____ _____    ______ ____
ROOT
ATOM      1  C   UNL     1      -8.481  -3.814  20.147  0.00  0.00    +0.000 A 
ATOM      2  C   UNL     1      -7.965  -3.224  21.323  0.00  0.00    +0.000 A 
ATOM      3  N   UNL     1      -8.776  -2.286  21.988  0.00  0.00    +0.000 N 
ATOM      4  N   UNL     1      -6.725  -3.477  21.779  0.00  0.00    +0.000 NA
ATOM      5  C   UNL     1      -6.029  -4.412  21.121  0.00  0.00    +0.000 A 
ATOM      6  N   UNL     1      -6.476  -5.065  20.059  0.00  0.00    +0.000 N 
ATOM      7  C   UNL     1      -7.676  -4.785  19.535  0.00  0.00    +0.000 A 
ATOM      8  H   UNL     1      -9.737  -2.630  21.973  0.00  0.00    +0.000 HD
ATOM      9  H   UNL     1      -5.033  -4.654  21.480  0.00  0.00    +0.000 HD
ATOM     10  H   UNL     1      -5.924  -5.800  19.627  0.00  0.00    +0.000 HD
ENDROOT
BRANCH   3  11
ATOM     11  C   UNL     1      -8.393  -1.970  23.360  0.00  0.00    +0.000 C 
ATOM     12  C   UNL     1      -9.219  -2.774  24.367  0.00  0.00    +0.000 C 
ATOM     13  C   UNL     1      -9.282  -1.917  25.624  0.00  0.00    +0.000 C 
ATOM     14  C   UNL     1      -8.909  -0.500  25.201  0.00  0.00    +0.000 C 
ATOM     15  C   UNL     1      -8.792  -0.539  23.681  0.00  0.00    +0.000 C 
ATOM     16  H   UNL     1      -7.314  -2.094  23.534  0.00  0.00    +0.000 HD
ATOM     17  H   UNL     1      -8.784  -3.757  24.570  0.00  0.00    +0.000 HD
ATOM     18  H   UNL     1     -10.236  -2.945  23.992  0.00  0.00    +0.000 HD
ATOM     19  H   UNL     1      -8.578  -2.283  26.378  0.00  0.00    +0.000 HD
ATOM     20  H   UNL     1     -10.284  -1.955  26.066  0.00  0.00    +0.000 HD
ATOM     21  H   UNL     1      -7.952  -0.218  25.651  0.00  0.00    +0.000 HD
ATOM     22  H   UNL     1      -9.657   0.233  25.529  0.00  0.00    +0.000 HD
ATOM     23  H   UNL     1      -8.057   0.193  23.317  0.00  0.00    +0.000 HD
ATOM     24  H   UNL     1      -9.757  -0.271  23.228  0.00  0.00    +0.000 HD
ENDBRANCH   3  11
BRANCH   1  25
ATOM     25  N   UNL     1      -9.836  -3.600  19.788  0.00  0.00    +0.000 N 
ATOM     26  H   UNL     1     -10.251  -4.446  19.387  0.00  0.00    +0.000 HD
ATOM     27  H   UNL     1     -10.463  -3.200  20.474  0.00  0.00    +0.000 HD
ENDBRANCH   1  25
BRANCH   7  28
ATOM     28  N   UNL     1      -8.048  -5.461  18.369  0.00  0.00    +0.000 N 
ATOM     29  H   UNL     1      -7.632  -5.091  17.518  0.00  0.00    +0.000 HD
BRANCH  28  30
ATOM     30  C   UNL     1      -8.369  -6.829  18.246  0.00  0.00    +0.000 A 
ATOM     31  C   UNL     1      -8.497  -7.663  19.383  0.00  0.00    +0.000 A 
ATOM     32  C   UNL     1      -8.869  -9.006  19.260  0.00  0.00    +0.000 A 
ATOM     33  C   UNL     1      -9.109  -9.482  17.997  0.00  0.00    +0.000 A 
ATOM     34  C   UNL     1      -8.965  -8.690  16.883  0.00  0.00    +0.000 A 
ATOM     35  C   UNL     1      -8.588  -7.368  16.973  0.00  0.00    +0.000 A 
ATOM     36  O   UNL     1      -9.253  -9.361  15.735  0.00  0.00    +0.000 OA
ATOM     37  C   UNL     1      -9.720 -10.621  16.267  0.00  0.00    +0.000 C 
ATOM     38  O   UNL     1      -9.505 -10.744  17.690  0.00  0.00    +0.000 OA
ATOM     39  H   UNL     1      -8.266  -7.300  20.381  0.00  0.00    +0.000 HD
ATOM     40  H   UNL     1      -8.957  -9.652  20.125  0.00  0.00    +0.000 HD
ATOM     41  H   UNL     1      -8.497  -6.769  16.068  0.00  0.00    +0.000 HD
ATOM     42  H   UNL     1      -9.209 -11.442  15.756  0.00  0.00    +0.000 HD
ATOM     43  H   UNL     1     -10.797 -10.696  16.075  0.00  0.00    +0.000 HD
ENDBRANCH  28  30
ENDBRANCH   7  28
TORSDOF 4
ENDMDL
MODEL 9
REMARK VINA RESULT:    -8.998      4.146      8.391
REMARK INTER + INTRA:         -11.238
REMARK INTER:                 -10.833
REMARK INTRA:                  -0.405
REMARK UNBOUND:                -0.398
REMARK  Name = 
REMARK  4 active torsions:
REMARK  status: ('A' for Active; 'I' for Inactive)
REMARK    1  A    between atoms: N_1  and  C_2
REMARK    2  A    between atoms: N_4  and  C_5
REMARK    3  A    between atoms: C_13  and  N_14
REMARK    4  A    between atoms: N_14  and  C_15
REMARK                            x       y       z     vdW  Elec       q    Type
REMARK                         _______ _______ _______ _____ _____    ______ ____
ROOT
ATOM      1  C   UNL     1      -9.807  -6.492  18.806  0.00  0.00    +0.000 A 
ATOM      2  C   UNL     1      -9.390  -5.145  18.896  0.00  0.00    +0.000 A 
ATOM      3  N   UNL     1     -10.332  -4.151  18.575  0.00  0.00    +0.000 N 
ATOM      4  N   UNL     1      -8.129  -4.794  19.209  0.00  0.00    +0.000 NA
ATOM      5  C   UNL     1      -7.301  -5.791  19.545  0.00  0.00    +0.000 A 
ATOM      6  N   UNL     1      -7.642  -7.071  19.562  0.00  0.00    +0.000 N 
ATOM      7  C   UNL     1      -8.866  -7.460  19.185  0.00  0.00    +0.000 A 
ATOM      8  H   UNL     1     -11.233  -4.429  18.965  0.00  0.00    +0.000 HD
ATOM      9  H   UNL     1      -6.282  -5.536  19.824  0.00  0.00    +0.000 HD
ATOM     10  H   UNL     1      -6.986  -7.782  19.872  0.00  0.00    +0.000 HD
ENDROOT
BRANCH   3  11
ATOM     11  C   UNL     1     -10.008  -2.798  19.015  0.00  0.00    +0.000 C 
ATOM     12  C   UNL     1     -11.125  -2.212  19.881  0.00  0.00    +0.000 C 
ATOM     13  C   UNL     1     -11.057  -0.705  19.676  0.00  0.00    +0.000 C 
ATOM     14  C   UNL     1     -10.248  -0.478  18.404  0.00  0.00    +0.000 C 
ATOM     15  C   UNL     1     -10.001  -1.863  17.816  0.00  0.00    +0.000 C 
ATOM     16  H   UNL     1      -9.033  -2.744  19.523  0.00  0.00    +0.000 HD
ATOM     17  H   UNL     1     -11.017  -2.481  20.935  0.00  0.00    +0.000 HD
ATOM     18  H   UNL     1     -12.107  -2.580  19.555  0.00  0.00    +0.000 HD
ATOM     19  H   UNL     1     -10.566  -0.220  20.526  0.00  0.00    +0.000 HD
ATOM     20  H   UNL     1     -12.064  -0.282  19.595  0.00  0.00    +0.000 HD
ATOM     21  H   UNL     1      -9.298   0.009  18.648  0.00  0.00    +0.000 HD
ATOM     22  H   UNL     1     -10.777   0.172  17.695  0.00  0.00    +0.000 HD
ATOM     23  H   UNL     1      -9.053  -1.900  17.261  0.00  0.00    +0.000 HD
ATOM     24  H   UNL     1     -10.798  -2.109  17.100  0.00  0.00    +0.000 HD
ENDBRANCH   3  11
BRANCH   1  25
ATOM     25  N   UNL     1     -11.176  -6.793  18.593  0.00  0.00    +0.000 N 
ATOM     26  H   UNL     1     -11.425  -7.697  19.003  0.00  0.00    +0.000 HD
ATOM     27  H   UNL     1     -11.869  -6.099  18.841  0.00  0.00    +0.000 HD
ENDBRANCH   1  25
BRANCH   7  28
ATOM     28  N   UNL     1      -9.128  -8.833  19.155  0.00  0.00    +0.000 N 
ATOM     29  H   UNL     1      -9.811  -9.146  19.841  0.00  0.00    +0.000 HD
BRANCH  28  30
ATOM     30  C   UNL     1      -9.088  -9.681  18.028  0.00  0.00    +0.000 A 
ATOM     31  C   UNL     1      -9.303  -9.183  16.721  0.00  0.00    +0.000 A 
ATOM     32  C   UNL     1      -9.207 -10.018  15.601  0.00  0.00    +0.000 A 
ATOM     33  C   UNL     1      -8.894 -11.334  15.820  0.00  0.00    +0.000 A 
ATOM     34  C   UNL     1      -8.706 -11.836  17.085  0.00  0.00    +0.000 A 
ATOM     35  C   UNL     1      -8.806 -11.040  18.206  0.00  0.00    +0.000 A 
ATOM     36  O   UNL     1      -8.404 -13.162  17.072  0.00  0.00    +0.000 OA
ATOM     37  C   UNL     1      -8.294 -13.401  15.651  0.00  0.00    +0.000 C 
ATOM     38  O   UNL     1      -8.732 -12.278  14.857  0.00  0.00    +0.000 OA
ATOM     39  H   UNL     1      -9.593  -8.150  16.548  0.00  0.00    +0.000 HD
ATOM     40  H   UNL     1      -9.382  -9.644  14.599  0.00  0.00    +0.000 HD
ATOM     41  H   UNL     1      -8.638 -11.473  19.192  0.00  0.00    +0.000 HD
ATOM     42  H   UNL     1      -8.887 -14.281  15.385  0.00  0.00    +0.000 HD
ATOM     43  H   UNL     1      -7.240 -13.597  15.417  0.00  0.00    +0.000 HD
ENDBRANCH  28  30
ENDBRANCH   7  28
TORSDOF 4
ENDMDL
