REMARK  Name = 
REMARK  8 active torsions:
REMARK  status: ('A' for Active; 'I' for Inactive)
REMARK    1  A    between atoms: C_1  and  N_2
REMARK    2  A    between atoms: N_2  and  C_3
REMARK    3  A    between atoms: N_2  and  N_4
REMARK    4  A    between atoms: N_4  and  C_5
REMARK    5  A    between atoms: N_10  and  N_11
REMARK    6  A    between atoms: N_11  and  C_12
REMARK    7  A    between atoms: N_11  and  C_18
REMARK    8  A    between atoms: C_24  and  N_25
REMARK                            x       y       z     vdW  Elec       q    Type
REMARK                         _______ _______ _______ _____ _____    ______ ____
ROOT
ATOM      1  C   UNL     1      -0.063   1.124  -2.732  0.00  0.00    +0.000 A 
ATOM      2  N   UNL     1      -1.251   1.685  -2.521  0.00  0.00    +0.000 N 
ATOM      3  C   UNL     1      -1.863   1.518  -1.360  0.00  0.00    +0.000 A 
ATOM      4  N   UNL     1      -1.314   0.864  -0.322  0.00  0.00    +0.000 NA
ATOM      5  C   UNL     1      -0.154   0.197  -0.543  0.00  0.00    +0.000 A 
ATOM      6  N   UNL     1       0.404  -0.616   0.472  0.00  0.00    +0.000 N 
ATOM      7  C   UNL     1       0.454   0.199  -1.817  0.00  0.00    +0.000 A 
ATOM      8  H   UNL     1      -1.622   2.252  -3.278  0.00  0.00    +0.000 HD
ATOM      9  H   UNL     1      -2.860   1.931  -1.246  0.00  0.00    +0.000 HD
ATOM     10  H   UNL     1       1.333  -0.974   0.304  0.00  0.00    +0.000 HD
ENDROOT
BRANCH   7  11
ATOM     11  N   UNL     1       1.623  -0.531  -2.117  0.00  0.00    +0.000 N 
ATOM     12  H   UNL     1       1.677  -1.436  -1.646  0.00  0.00    +0.000 HD
ATOM     13  H   UNL     1       2.501  -0.020  -1.994  0.00  0.00    +0.000 HD
ENDBRANCH   7  11
BRANCH   1  14
ATOM     14  N   UNL     1       0.618   1.518  -3.896  0.00  0.00    +0.000 N 
ATOM     15  H   UNL     1       1.563   1.117  -3.910  0.00  0.00    +0.000 HD
BRANCH  14  16
ATOM     16  N   UNL     1       0.520   2.921  -4.210  0.00  0.00    +0.000 NA
BRANCH  16  17
ATOM     17  C   UNL     1       1.442   3.691  -3.345  0.00  0.00    +0.000 C 
ATOM     18  H   UNL     1       1.469   4.745  -3.645  0.00  0.00    +0.000 HD
ATOM     19  H   UNL     1       2.464   3.294  -3.373  0.00  0.00    +0.000 HD
ATOM     20  H   UNL     1       1.092   3.675  -2.307  0.00  0.00    +0.000 HD
ENDBRANCH  16  17
BRANCH  16  21
ATOM     21  C   UNL     1       0.925   3.115  -5.617  0.00  0.00    +0.000 C 
ATOM     22  H   UNL     1       0.996   4.180  -5.855  0.00  0.00    +0.000 HD
ATOM     23  H   UNL     1       0.168   2.688  -6.283  0.00  0.00    +0.000 HD
ATOM     24  H   UNL     1       1.891   2.646  -5.833  0.00  0.00    +0.000 HD
ENDBRANCH  16  21
ENDBRANCH  14  16
ENDBRANCH   1  14
BRANCH   6  25
ATOM     25  N   UNL     1      -0.166  -0.983   1.689  0.00  0.00    +0.000 N 
BRANCH  25  26
ATOM     26  C   UNL     1       0.564  -0.691   2.916  0.00  0.00    +0.000 A 
ATOM     27  C   UNL     1      -0.102  -0.653   4.161  0.00  0.00    +0.000 A 
ATOM     28  C   UNL     1       0.581  -0.454   5.367  0.00  0.00    +0.000 A 
ATOM     29  C   UNL     1       1.958  -0.257   5.368  0.00  0.00    +0.000 A 
ATOM     30  C   UNL     1       2.641  -0.250   4.154  0.00  0.00    +0.000 A 
ATOM     31  C   UNL     1       1.953  -0.457   2.942  0.00  0.00    +0.000 A 
ATOM     32  H   UNL     1      -1.180  -0.793   4.207  0.00  0.00    +0.000 HD
ATOM     33  H   UNL     1       0.039  -0.461   6.311  0.00  0.00    +0.000 HD
ATOM     34  H   UNL     1       2.489  -0.100   6.306  0.00  0.00    +0.000 HD
ATOM     35  H   UNL     1       3.718  -0.092   4.149  0.00  0.00    +0.000 HD
ATOM     36  H   UNL     1       2.544  -0.467   2.033  0.00  0.00    +0.000 HD
ENDBRANCH  25  26
BRANCH  25  37
ATOM     37  C   UNL     1      -1.222  -1.978   1.642  0.00  0.00    +0.000 A 
ATOM     38  C   UNL     1      -1.292  -3.034   2.564  0.00  0.00    +0.000 A 
ATOM     39  C   UNL     1      -2.347  -3.956   2.531  0.00  0.00    +0.000 A 
ATOM     40  C   UNL     1      -3.343  -3.864   1.572  0.00  0.00    +0.000 A 
ATOM     41  C   UNL     1      -3.273  -2.866   0.620  0.00  0.00    +0.000 A 
ATOM     42  C   UNL     1      -2.220  -1.953   0.650  0.00  0.00    +0.000 A 
ATOM     43  H   UNL     1      -0.523  -3.167   3.319  0.00  0.00    +0.000 HD
ATOM     44  H   UNL     1      -2.385  -4.754   3.272  0.00  0.00    +0.000 HD
ATOM     45  H   UNL     1      -4.170  -4.571   1.566  0.00  0.00    +0.000 HD
ATOM     46  H   UNL     1      -4.039  -2.783  -0.150  0.00  0.00    +0.000 HD
ATOM     47  H   UNL     1      -2.239  -1.198  -0.115  0.00  0.00    +0.000 HD
ENDBRANCH  25  37
ENDBRANCH   6  25
TORSDOF 8
