REMARK  Name = 
REMARK  3 active torsions:
REMARK  status: ('A' for Active; 'I' for Inactive)
REMARK    1  A    between atoms: C_8  and  C_9
REMARK    2  A    between atoms: N_10  and  N_11
REMARK    3  A    between atoms: C_16  and  C_17
REMARK                            x       y       z     vdW  Elec       q    Type
REMARK                         _______ _______ _______ _____ _____    ______ ____
ROOT
ATOM      1  N   UNL     1      -1.456   0.399  -0.941  0.00  0.00    +0.000 N 
ATOM      2  C   UNL     1      -2.699   0.293  -1.631  0.00  0.00    +0.000 C 
ATOM      3  S   UNL     1      -3.553  -1.043  -2.184  0.00  0.00    +0.000 SA
ATOM      4  N   UNL     1      -3.191   1.601  -1.793  0.00  0.00    +0.000 N 
ATOM      5  N   UNL     1      -2.333   2.558  -1.266  0.00  0.00    +0.000 N 
ATOM      6  C   UNL     1      -1.293   1.816  -0.494  0.00  0.00    +0.000 C 
ATOM      7  H   UNL     1      -4.078   1.741  -2.271  0.00  0.00    +0.000 HD
ATOM      8  H   UNL     1      -2.850   3.202  -0.664  0.00  0.00    +0.000 HD
ATOM      9  H   UNL     1      -0.303   2.166  -0.805  0.00  0.00    +0.000 HD
ENDROOT
BRANCH   6  10
ATOM     10  C   UNL     1      -1.495   1.924   1.032  0.00  0.00    +0.000 C 
ATOM     11  N   UNL     1      -1.925   3.341   1.399  0.00  0.00    +0.000 NA
ATOM     12  N   UNL     1      -1.179   3.811   2.316  0.00  0.00    +0.000 NA
ATOM     13  C   UNL     1      -0.222   2.894   2.600  0.00  0.00    +0.000 C 
ATOM     14  C   UNL     1      -0.294   1.789   1.878  0.00  0.00    +0.000 C 
ATOM     15  C   UNL     1       0.624   0.736   2.327  0.00  0.00    +0.000 C 
ATOM     16  C   UNL     1       1.507   1.528   3.324  0.00  0.00    +0.000 C 
ATOM     17  C   UNL     1       0.730   2.803   3.723  0.00  0.00    +0.000 C 
ATOM     18  H   UNL     1      -2.285   1.245   1.373  0.00  0.00    +0.000 HD
ATOM     19  H   UNL     1       1.232   0.327   1.515  0.00  0.00    +0.000 HD
ATOM     20  H   UNL     1       0.086  -0.072   2.829  0.00  0.00    +0.000 HD
ATOM     21  H   UNL     1       2.445   1.818   2.831  0.00  0.00    +0.000 HD
ATOM     22  H   UNL     1       1.780   0.925   4.197  0.00  0.00    +0.000 HD
ATOM     23  H   UNL     1       1.392   3.668   3.809  0.00  0.00    +0.000 HD
ATOM     24  H   UNL     1       0.198   2.656   4.670  0.00  0.00    +0.000 HD
ENDBRANCH   6  10
BRANCH   1  26
ATOM     25  C   UNL     1      -0.265  -1.318  -1.752  0.00  0.00    +0.000 C 
ATOM     26  N   UNL     1      -0.464  -0.579  -0.706  0.00  0.00    +0.000 NA
ATOM     27  H   UNL     1      -0.802  -1.132  -2.697  0.00  0.00    +0.000 HD
BRANCH  25  35
ATOM     28  F   UNL     1       1.554  -2.021   0.383  0.00  0.00    +0.000 F 
ATOM     29  C   UNL     1       1.610  -2.681  -0.781  0.00  0.00    +0.000 A 
ATOM     30  C   UNL     1       2.597  -3.653  -0.943  0.00  0.00    +0.000 A 
ATOM     31  C   UNL     1       2.704  -4.343  -2.152  0.00  0.00    +0.000 A 
ATOM     32  C   UNL     1       1.814  -4.069  -3.189  0.00  0.00    +0.000 A 
ATOM     33 BR   UNL     1       1.965  -4.989  -4.831  0.00  0.00    +0.000 Br
ATOM     34  C   UNL     1       0.820  -3.099  -3.030  0.00  0.00    +0.000 A 
ATOM     35  C   UNL     1       0.731  -2.396  -1.824  0.00  0.00    +0.000 A 
ATOM     36  H   UNL     1       3.280  -3.863  -0.125  0.00  0.00    +0.000 HD
ATOM     37  H   UNL     1       3.486  -5.090  -2.279  0.00  0.00    +0.000 HD
ATOM     38  H   UNL     1       0.130  -2.892  -3.845  0.00  0.00    +0.000 HD
ENDBRANCH  25  35
ENDBRANCH   1  26
TORSDOF 3
