REMARK  Name = 
REMARK  6 active torsions:
REMARK  status: ('A' for Active; 'I' for Inactive)
REMARK    1  A    between atoms: C_1  and  C_2
REMARK    2  A    between atoms: C_6  and  C_8
REMARK    3  A    between atoms: C_8  and  S_9
REMARK    4  A    between atoms: S_9  and  C_10
REMARK    5  A    between atoms: C_13  and  C_14
REMARK    6  A    between atoms: N_19  and  N_20
REMARK                            x       y       z     vdW  Elec       q    Type
REMARK                         _______ _______ _______ _____ _____    ______ ____
ROOT
ATOM      1  C   UNL     1      -3.987   0.024  -3.405  0.00  0.00    +0.000 C 
ATOM      2  C   UNL     1      -3.488  -1.375  -3.025  0.00  0.00    +0.000 C 
ATOM      3  C   UNL     1      -1.984  -1.562  -3.216  0.00  0.00    +0.000 C 
ATOM      4  N   UNL     1      -1.163  -0.842  -2.239  0.00  0.00    +0.000 N 
ATOM      5  C   UNL     1      -0.803  -1.468  -1.040  0.00  0.00    +0.000 C 
ATOM      6  O   UNL     1      -1.142  -2.637  -0.829  0.00  0.00    +0.000 OA
ATOM      7  C   UNL     1      -0.790   0.473  -2.607  0.00  0.00    +0.000 A 
ATOM      8  C   UNL     1       0.532   0.708  -3.006  0.00  0.00    +0.000 A 
ATOM      9  C   UNL     1       0.902   1.957  -3.506  0.00  0.00    +0.000 A 
ATOM     10  C   UNL     1      -0.041   2.978  -3.601  0.00  0.00    +0.000 A 
ATOM     11  C   UNL     1      -1.358   2.752  -3.199  0.00  0.00    +0.000 A 
ATOM     12  C   UNL     1      -1.749   1.496  -2.719  0.00  0.00    +0.000 A 
ATOM     13  S   UNL     1      -3.449   1.298  -2.206  0.00  0.00    +0.000 S 
ATOM     14  H   UNL     1      -3.617   0.299  -4.400  0.00  0.00    +0.000 HD
ATOM     15  H   UNL     1      -3.987  -2.105  -3.677  0.00  0.00    +0.000 HD
ATOM     16  H   UNL     1      -3.779  -1.629  -1.998  0.00  0.00    +0.000 HD
ATOM     17  H   UNL     1      -1.684  -1.264  -4.230  0.00  0.00    +0.000 HD
ATOM     18  H   UNL     1      -1.755  -2.633  -3.141  0.00  0.00    +0.000 HD
ATOM     19  H   UNL     1       1.269  -0.090  -2.975  0.00  0.00    +0.000 HD
ATOM     20  H   UNL     1       1.924   2.131  -3.836  0.00  0.00    +0.000 HD
ATOM     21  H   UNL     1       0.246   3.952  -3.992  0.00  0.00    +0.000 HD
ATOM     22  H   UNL     1      -2.080   3.563  -3.273  0.00  0.00    +0.000 HD
ENDROOT
BRANCH   1  23
ATOM     23  C   UNL     1      -5.516   0.050  -3.453  0.00  0.00    +0.000 C 
ATOM     24  H   UNL     1      -5.885  -0.657  -4.205  0.00  0.00    +0.000 HD
ATOM     25  H   UNL     1      -5.891   1.041  -3.732  0.00  0.00    +0.000 HD
ATOM     26  H   UNL     1      -5.960  -0.230  -2.491  0.00  0.00    +0.000 HD
ENDBRANCH   1  23
BRANCH   5  27
ATOM     27  C   UNL     1      -0.008  -0.644  -0.011  0.00  0.00    +0.000 C 
ATOM     28  H   UNL     1      -0.584   0.245   0.262  0.00  0.00    +0.000 HD
ATOM     29  H   UNL     1       0.953  -0.358  -0.447  0.00  0.00    +0.000 HD
BRANCH  27  30
ATOM     30  S   UNL     1       0.315  -1.626   1.499  0.00  0.00    +0.000 S 
BRANCH  30  31
ATOM     31  C   UNL     1       1.321  -0.575   2.435  0.00  0.00    +0.000 A 
ATOM     32  N   UNL     1       1.652   0.667   2.166  0.00  0.00    +0.000 NA
ATOM     33  N   UNL     1       2.527   1.087   3.152  0.00  0.00    +0.000 NA
ATOM     34  C   UNL     1       2.742   0.078   3.979  0.00  0.00    +0.000 A 
ATOM     35  N   UNL     1       1.934  -0.979   3.602  0.00  0.00    +0.000 N 
BRANCH  34  36
ATOM     36  C   UNL     1       3.693   0.108   5.063  0.00  0.00    +0.000 A 
ATOM     37  C   UNL     1       4.113   1.223   5.766  0.00  0.00    +0.000 A 
ATOM     38  C   UNL     1       5.099   0.916   6.755  0.00  0.00    +0.000 A 
ATOM     39  C   UNL     1       5.415  -0.420   6.767  0.00  0.00    +0.000 A 
ATOM     40  S   UNL     1       4.535  -1.293   5.595  0.00  0.00    +0.000 S 
ATOM     41  H   UNL     1       3.729   2.219   5.584  0.00  0.00    +0.000 HD
ATOM     42  H   UNL     1       5.557   1.643   7.416  0.00  0.00    +0.000 HD
ATOM     43  H   UNL     1       6.130  -0.930   7.403  0.00  0.00    +0.000 HD
ENDBRANCH  34  36
BRANCH  35  44
ATOM     44  N   UNL     1       1.752  -2.241   4.285  0.00  0.00    +0.000 N 
ATOM     45  H   UNL     1       2.395  -2.331   5.071  0.00  0.00    +0.000 HD
ATOM     46  H   UNL     1       1.963  -3.017   3.659  0.00  0.00    +0.000 HD
ENDBRANCH  35  44
ENDBRANCH  30  31
ENDBRANCH  27  30
ENDBRANCH   5  27
TORSDOF 6
