
 OpenBabel01112423093D

 47 49  0  0  1  0  0  0  0  0999 V2000
    4.0981    0.0395   -0.5938 C   0  0  0  0  0  0  0  0  0  0  0  0
    2.7731    0.4692   -0.0364 C   0  0  0  0  0  0  0  0  0  0  0  0
    2.6044    1.8569    0.1686 C   0  0  0  0  0  0  0  0  0  0  0  0
    1.4469    2.3855    0.7400 C   0  0  0  0  0  0  0  0  0  0  0  0
    0.4221    1.5358    1.1193 C   0  0  0  0  0  0  0  0  0  0  0  0
    0.5620    0.1682    0.9041 C   0  0  0  0  0  0  0  0  0  0  0  0
    1.7224   -0.3820    0.3222 C   0  0  0  0  0  0  0  0  0  0  0  0
    1.6334   -1.7344    0.2870 O   0  0  0  0  0  0  0  0  0  0  0  0
    2.4217   -2.6208   -0.5198 C   0  0  0  0  0  0  0  0  0  0  0  0
    2.5590   -3.8322    0.3878 C   0  0  1  0  0  0  0  0  0  0  0  0
    3.1408   -5.1373   -0.1475 C   0  0  0  0  0  0  0  0  0  0  0  0
    2.9540   -6.2149    0.9484 C   0  0  0  0  0  0  0  0  0  0  0  0
    3.3684   -5.7863    2.3812 C   0  0  0  0  0  0  0  0  0  0  0  0
    3.0279   -4.3757    2.6562 N   0  0  0  0  0  0  0  0  0  0  0  0
    2.1395   -3.9622    3.6249 C   0  0  0  0  0  0  0  0  0  0  0  0
    2.0120   -4.5964    4.8586 C   0  0  0  0  0  0  0  0  0  0  0  0
    1.1846   -4.0334    5.8138 C   0  0  0  0  0  0  0  0  0  0  0  0
    1.1382   -4.5615    7.0943 N   0  0  0  0  0  0  0  0  0  0  0  0
    0.4940   -2.9088    5.5978 N   0  0  0  0  0  0  0  0  0  0  0  0
    0.6393   -2.3472    4.3929 C   0  0  0  0  0  0  0  0  0  0  0  0
   -0.0536   -1.1754    4.1400 N   0  0  0  0  0  0  0  0  0  0  0  0
    1.4092   -2.8485    3.4331 N   0  3  0  0  0  0  0  0  0  0  0  0
    3.4191   -3.4588    1.5984 C   0  0  0  0  0  0  0  0  0  0  0  0
    4.7619    0.8943   -0.7671 H   0  0  0  0  0  0  0  0  0  0  0  0
    3.9726   -0.4470   -1.5644 H   0  0  0  0  0  0  0  0  0  0  0  0
    4.6125   -0.6174    0.1152 H   0  0  0  0  0  0  0  0  0  0  0  0
    3.3931    2.5534   -0.1192 H   0  0  0  0  0  0  0  0  0  0  0  0
    1.3490    3.4599    0.8773 H   0  0  0  0  0  0  0  0  0  0  0  0
   -0.4872    1.9373    1.5591 H   0  0  0  0  0  0  0  0  0  0  0  0
   -0.2668   -0.4835    1.1781 H   0  0  0  0  0  0  0  0  0  0  0  0
    3.4036   -2.2549   -0.7968 H   0  0  0  0  0  0  0  0  0  0  0  0
    1.8502   -2.8625   -1.4213 H   0  0  0  0  0  0  0  0  0  0  0  0
    1.5351   -4.0625    0.7234 H   0  0  0  0  0  0  0  0  0  0  0  0
    4.2074   -5.0269   -0.3819 H   0  0  0  0  0  0  0  0  0  0  0  0
    2.6380   -5.4506   -1.0686 H   0  0  0  0  0  0  0  0  0  0  0  0
    3.4983   -7.1252    0.6699 H   0  0  0  0  0  0  0  0  0  0  0  0
    1.8904   -6.4861    0.9698 H   0  0  0  0  0  0  0  0  0  0  0  0
    4.4531   -5.8993    2.4882 H   0  0  0  0  0  0  0  0  0  0  0  0
    2.9034   -6.4739    3.0961 H   0  0  0  0  0  0  0  0  0  0  0  0
    2.6043   -5.4700    5.1048 H   0  0  0  0  0  0  0  0  0  0  0  0
    0.9950   -5.5638    7.1436 H   0  0  0  0  0  0  0  0  0  0  0  0
    0.4692   -4.0538    7.6696 H   0  0  0  0  0  0  0  0  0  0  0  0
   -0.4860   -0.8563    5.0069 H   0  0  0  0  0  0  0  0  0  0  0  0
    0.4662   -0.4361    3.6797 H   0  0  0  0  0  0  0  0  0  0  0  0
    1.3938   -2.3702    2.5429 H   0  0  0  0  0  0  0  0  0  0  0  0
    4.4884   -3.5791    1.3773 H   0  0  0  0  0  0  0  0  0  0  0  0
    3.3265   -2.4138    1.9106 H   0  0  0  0  0  0  0  0  0  0  0  0
  1  2  1  0  0  0  0
  1 24  1  0  0  0  0
  1 25  1  0  0  0  0
  1 26  1  0  0  0  0
  2  3  1  0  0  0  0
  2  7  2  0  0  0  0
  3  4  2  0  0  0  0
  3 27  1  0  0  0  0
  4  5  1  0  0  0  0
  4 28  1  0  0  0  0
  5  6  2  0  0  0  0
  5 29  1  0  0  0  0
  6  7  1  0  0  0  0
  6 30  1  0  0  0  0
  7  8  1  0  0  0  0
  8  9  1  0  0  0  0
  9 10  1  0  0  0  0
  9 31  1  0  0  0  0
  9 32  1  0  0  0  0
 10 11  1  0  0  0  0
 10 23  1  0  0  0  0
 10 33  1  1  0  0  0
 11 12  1  0  0  0  0
 11 34  1  0  0  0  0
 11 35  1  0  0  0  0
 12 13  1  0  0  0  0
 12 36  1  0  0  0  0
 12 37  1  0  0  0  0
 13 14  1  0  0  0  0
 13 38  1  0  0  0  0
 13 39  1  0  0  0  0
 14 15  1  0  0  0  0
 14 23  1  0  0  0  0
 15 16  1  0  0  0  0
 15 22  2  0  0  0  0
 16 17  2  0  0  0  0
 16 40  1  0  0  0  0
 17 18  1  0  0  0  0
 17 19  1  0  0  0  0
 18 41  1  0  0  0  0
 18 42  1  0  0  0  0
 19 20  2  0  0  0  0
 20 21  1  0  0  0  0
 20 22  1  0  0  0  0
 21 43  1  0  0  0  0
 21 44  1  0  0  0  0
 22 45  1  0  0  0  0
 23 46  1  0  0  0  0
 23 47  1  0  0  0  0
M  CHG  1  22   1
M  END
$$$$
