MODEL 1
REMARK VINA RESULT:    -9.691      0.000      0.000
REMARK INTER + INTRA:         -14.754
REMARK INTER:                 -14.506
REMARK INTRA:                  -0.248
REMARK UNBOUND:                -0.248
REMARK  Name = 
REMARK  10 active torsions:
REMARK  status: ('A' for Active; 'I' for Inactive)
REMARK    1  A    between atoms: C_1  and  O_2
REMARK    2  A    between atoms: O_2  and  C_3
REMARK    3  A    between atoms: C_6  and  C_7
REMARK    4  A    between atoms: C_7  and  C_8
REMARK    5  A    between atoms: C_8  and  N_9
REMARK    6  A    between atoms: N_9  and  C_10
REMARK    7  A    between atoms: N_15  and  C_16
REMARK    8  A    between atoms: C_21  and  N_22
REMARK    9  A    between atoms: C_24  and  O_25
REMARK   10  A    between atoms: O_25  and  C_26
REMARK                            x       y       z     vdW  Elec       q    Type
REMARK                         _______ _______ _______ _____ _____    ______ ____
ROOT
ATOM      1  N   UNL     1     -11.716  -7.758  17.643  0.00  0.00    +0.000 N 
ATOM      2  H   UNL     1     -11.704  -8.337  18.482  0.00  0.00    +0.000 HD
ENDROOT
BRANCH   1   3
ATOM      3  C   UNL     1     -10.882  -6.638  17.841  0.00  0.00    +0.000 A 
ATOM      4  N   UNL     1     -11.052  -5.546  17.077  0.00  0.00    +0.000 NA
ATOM      5  C   UNL     1     -10.233  -4.517  17.318  0.00  0.00    +0.000 A 
ATOM      6  N   UNL     1      -9.321  -4.482  18.280  0.00  0.00    +0.000 N 
ATOM      7  C   UNL     1      -9.142  -5.520  19.100  0.00  0.00    +0.000 A 
ATOM      8  N   UNL     1      -8.201  -5.457  20.115  0.00  0.00    +0.000 N 
ATOM      9  C   UNL     1      -9.929  -6.680  18.886  0.00  0.00    +0.000 A 
ATOM     10  H   UNL     1     -10.329  -3.641  16.681  0.00  0.00    +0.000 HD
ATOM     11  H   UNL     1      -8.753  -3.658  18.384  0.00  0.00    +0.000 HD
ATOM     12  H   UNL     1      -8.568  -5.786  21.009  0.00  0.00    +0.000 HD
BRANCH   8  13
ATOM     13  C   UNL     1      -7.125  -4.475  20.232  0.00  0.00    +0.000 C 
ATOM     14  C   UNL     1      -5.797  -5.138  19.860  0.00  0.00    +0.000 C 
ATOM     15  C   UNL     1      -4.717  -4.485  20.712  0.00  0.00    +0.000 C 
ATOM     16  C   UNL     1      -5.425  -3.614  21.739  0.00  0.00    +0.000 C 
ATOM     17  C   UNL     1      -6.907  -3.961  21.653  0.00  0.00    +0.000 C 
ATOM     18  H   UNL     1      -7.308  -3.634  19.553  0.00  0.00    +0.000 HD
ATOM     19  H   UNL     1      -5.588  -5.015  18.791  0.00  0.00    +0.000 HD
ATOM     20  H   UNL     1      -5.809  -6.218  20.055  0.00  0.00    +0.000 HD
ATOM     21  H   UNL     1      -4.040  -3.883  20.096  0.00  0.00    +0.000 HD
ATOM     22  H   UNL     1      -4.107  -5.251  21.204  0.00  0.00    +0.000 HD
ATOM     23  H   UNL     1      -5.263  -2.556  21.502  0.00  0.00    +0.000 HD
ATOM     24  H   UNL     1      -5.033  -3.782  22.748  0.00  0.00    +0.000 HD
ATOM     25  H   UNL     1      -7.507  -3.066  21.857  0.00  0.00    +0.000 HD
ATOM     26  H   UNL     1      -7.171  -4.709  22.409  0.00  0.00    +0.000 HD
ENDBRANCH   8  13
BRANCH   9  27
ATOM     27  N   UNL     1      -9.616  -7.909  19.515  0.00  0.00    +0.000 N 
ATOM     28  H   UNL     1      -8.631  -8.115  19.648  0.00  0.00    +0.000 HD
ATOM     29  H   UNL     1     -10.180  -8.099  20.342  0.00  0.00    +0.000 HD
ENDBRANCH   9  27
ENDBRANCH   1   3
BRANCH   1  30
ATOM     30  C   UNL     1     -11.401  -8.541  16.435  0.00  0.00    +0.000 C 
ATOM     31  H   UNL     1     -11.771  -9.570  16.546  0.00  0.00    +0.000 HD
ATOM     32  H   UNL     1     -11.900  -8.091  15.570  0.00  0.00    +0.000 HD
BRANCH  30  33
ATOM     33  C   UNL     1      -9.885  -8.593  16.202  0.00  0.00    +0.000 C 
ATOM     34  H   UNL     1      -9.619  -8.036  15.296  0.00  0.00    +0.000 HD
ATOM     35  H   UNL     1      -9.377  -8.083  17.031  0.00  0.00    +0.000 HD
BRANCH  33  39
ATOM     36  C   UNL     1      -8.432 -12.673  15.844  0.00  0.00    +0.000 A 
ATOM     37  C   UNL     1      -8.831 -11.947  14.713  0.00  0.00    +0.000 A 
ATOM     38  C   UNL     1      -9.285 -10.627  14.824  0.00  0.00    +0.000 A 
ATOM     39  C   UNL     1      -9.366 -10.006  16.072  0.00  0.00    +0.000 A 
ATOM     40  C   UNL     1      -8.981 -10.738  17.202  0.00  0.00    +0.000 A 
ATOM     41  C   UNL     1      -8.495 -12.050  17.100  0.00  0.00    +0.000 A 
ATOM     42  H   UNL     1      -8.832 -12.395  13.725  0.00  0.00    +0.000 HD
ATOM     43  H   UNL     1      -9.595 -10.103  13.922  0.00  0.00    +0.000 HD
ATOM     44  H   UNL     1      -9.052 -10.294  18.194  0.00  0.00    +0.000 HD
BRANCH  36  45
ATOM     45  O   UNL     1      -8.057 -13.988  15.793  0.00  0.00    +0.000 OA
BRANCH  45  46
ATOM     46  C   UNL     1      -8.815 -14.853  14.956  0.00  0.00    +0.000 C 
ATOM     47  H   UNL     1      -8.488 -15.878  15.154  0.00  0.00    +0.000 HD
ATOM     48  H   UNL     1      -8.625 -14.639  13.899  0.00  0.00    +0.000 HD
ATOM     49  H   UNL     1      -9.883 -14.801  15.186  0.00  0.00    +0.000 HD
ENDBRANCH  45  46
ENDBRANCH  36  45
BRANCH  41  50
ATOM     50  O   UNL     1      -8.163 -12.595  18.315  0.00  0.00    +0.000 OA
BRANCH  50  51
ATOM     51  C   UNL     1      -8.910 -13.733  18.733  0.00  0.00    +0.000 C 
ATOM     52  H   UNL     1      -9.355 -14.181  17.838  0.00  0.00    +0.000 HD
ATOM     53  H   UNL     1      -9.731 -13.462  19.405  0.00  0.00    +0.000 HD
ATOM     54  H   UNL     1      -8.256 -14.488  19.177  0.00  0.00    +0.000 HD
ENDBRANCH  50  51
ENDBRANCH  41  50
ENDBRANCH  33  39
ENDBRANCH  30  33
ENDBRANCH   1  30
TORSDOF 10
ENDMDL
MODEL 2
REMARK VINA RESULT:    -9.662      1.491      2.040
REMARK INTER + INTRA:         -14.711
REMARK INTER:                 -13.859
REMARK INTRA:                  -0.851
REMARK UNBOUND:                -0.248
REMARK  Name = 
REMARK  10 active torsions:
REMARK  status: ('A' for Active; 'I' for Inactive)
REMARK    1  A    between atoms: C_1  and  O_2
REMARK    2  A    between atoms: O_2  and  C_3
REMARK    3  A    between atoms: C_6  and  C_7
REMARK    4  A    between atoms: C_7  and  C_8
REMARK    5  A    between atoms: C_8  and  N_9
REMARK    6  A    between atoms: N_9  and  C_10
REMARK    7  A    between atoms: N_15  and  C_16
REMARK    8  A    between atoms: C_21  and  N_22
REMARK    9  A    between atoms: C_24  and  O_25
REMARK   10  A    between atoms: O_25  and  C_26
REMARK                            x       y       z     vdW  Elec       q    Type
REMARK                         _______ _______ _______ _____ _____    ______ ____
ROOT
ATOM      1  N   UNL     1     -10.172  -6.704  15.864  0.00  0.00    +0.000 N 
ATOM      2  H   UNL     1     -10.672  -6.235  15.110  0.00  0.00    +0.000 HD
ENDROOT
BRANCH   1   3
ATOM      3  C   UNL     1     -10.068  -5.829  16.966  0.00  0.00    +0.000 A 
ATOM      4  N   UNL     1     -11.112  -5.046  17.287  0.00  0.00    +0.000 NA
ATOM      5  C   UNL     1     -10.951  -4.244  18.345  0.00  0.00    +0.000 A 
ATOM      6  N   UNL     1      -9.874  -4.213  19.117  0.00  0.00    +0.000 N 
ATOM      7  C   UNL     1      -8.827  -5.005  18.874  0.00  0.00    +0.000 A 
ATOM      8  N   UNL     1      -7.719  -4.976  19.706  0.00  0.00    +0.000 N 
ATOM      9  C   UNL     1      -8.883  -5.853  17.738  0.00  0.00    +0.000 A 
ATOM     10  H   UNL     1     -11.770  -3.573  18.592  0.00  0.00    +0.000 HD
ATOM     11  H   UNL     1      -9.848  -3.575  19.894  0.00  0.00    +0.000 HD
ATOM     12  H   UNL     1      -7.402  -5.911  19.965  0.00  0.00    +0.000 HD
BRANCH   8  13
ATOM     13  C   UNL     1      -7.405  -3.941  20.688  0.00  0.00    +0.000 C 
ATOM     14  C   UNL     1      -5.916  -4.009  21.032  0.00  0.00    +0.000 C 
ATOM     15  C   UNL     1      -5.775  -3.599  22.492  0.00  0.00    +0.000 C 
ATOM     16  C   UNL     1      -7.180  -3.514  23.068  0.00  0.00    +0.000 C 
ATOM     17  C   UNL     1      -8.113  -4.124  22.028  0.00  0.00    +0.000 C 
ATOM     18  H   UNL     1      -7.632  -2.950  20.275  0.00  0.00    +0.000 HD
ATOM     19  H   UNL     1      -5.335  -3.350  20.376  0.00  0.00    +0.000 HD
ATOM     20  H   UNL     1      -5.510  -5.020  20.899  0.00  0.00    +0.000 HD
ATOM     21  H   UNL     1      -5.262  -2.634  22.581  0.00  0.00    +0.000 HD
ATOM     22  H   UNL     1      -5.173  -4.334  23.037  0.00  0.00    +0.000 HD
ATOM     23  H   UNL     1      -7.442  -2.466  23.254  0.00  0.00    +0.000 HD
ATOM     24  H   UNL     1      -7.254  -4.039  24.027  0.00  0.00    +0.000 HD
ATOM     25  H   UNL     1      -9.079  -3.605  22.051  0.00  0.00    +0.000 HD
ATOM     26  H   UNL     1      -8.305  -5.178  22.254  0.00  0.00    +0.000 HD
ENDBRANCH   8  13
BRANCH   9  27
ATOM     27  N   UNL     1      -7.728  -6.507  17.249  0.00  0.00    +0.000 N 
ATOM     28  H   UNL     1      -7.439  -7.348  17.738  0.00  0.00    +0.000 HD
ATOM     29  H   UNL     1      -7.715  -6.609  16.235  0.00  0.00    +0.000 HD
ENDBRANCH   9  27
ENDBRANCH   1   3
BRANCH   1  30
ATOM     30  C   UNL     1     -10.769  -8.012  16.185  0.00  0.00    +0.000 C 
ATOM     31  H   UNL     1     -10.618  -8.245  17.248  0.00  0.00    +0.000 HD
ATOM     32  H   UNL     1     -11.848  -7.976  15.994  0.00  0.00    +0.000 HD
BRANCH  30  33
ATOM     33  C   UNL     1     -10.122  -9.124  15.348  0.00  0.00    +0.000 C 
ATOM     34  H   UNL     1     -10.866  -9.588  14.690  0.00  0.00    +0.000 HD
ATOM     35  H   UNL     1      -9.367  -8.680  14.686  0.00  0.00    +0.000 HD
BRANCH  33  39
ATOM     36  C   UNL     1      -8.346 -12.225  17.821  0.00  0.00    +0.000 A 
ATOM     37  C   UNL     1      -8.650 -12.462  16.474  0.00  0.00    +0.000 A 
ATOM     38  C   UNL     1      -9.208 -11.460  15.670  0.00  0.00    +0.000 A 
ATOM     39  C   UNL     1      -9.490 -10.199  16.201  0.00  0.00    +0.000 A 
ATOM     40  C   UNL     1      -9.200  -9.969  17.551  0.00  0.00    +0.000 A 
ATOM     41  C   UNL     1      -8.613 -10.955  18.358  0.00  0.00    +0.000 A 
ATOM     42  H   UNL     1      -8.494 -13.436  16.022  0.00  0.00    +0.000 HD
ATOM     43  H   UNL     1      -9.438 -11.689  14.632  0.00  0.00    +0.000 HD
ATOM     44  H   UNL     1      -9.427  -9.006  18.006  0.00  0.00    +0.000 HD
BRANCH  36  45
ATOM     45  O   UNL     1      -7.875 -13.196  18.662  0.00  0.00    +0.000 OA
BRANCH  45  46
ATOM     46  C   UNL     1      -8.682 -14.352  18.845  0.00  0.00    +0.000 C 
ATOM     47  H   UNL     1      -8.403 -15.078  18.075  0.00  0.00    +0.000 HD
ATOM     48  H   UNL     1      -9.742 -14.114  18.713  0.00  0.00    +0.000 HD
ATOM     49  H   UNL     1      -8.498 -14.822  19.816  0.00  0.00    +0.000 HD
ENDBRANCH  45  46
ENDBRANCH  36  45
BRANCH  41  50
ATOM     50  O   UNL     1      -8.399 -10.537  19.647  0.00  0.00    +0.000 OA
BRANCH  50  51
ATOM     51  C   UNL     1      -8.743  -9.189  19.949  0.00  0.00    +0.000 C 
ATOM     52  H   UNL     1      -9.507  -8.875  19.229  0.00  0.00    +0.000 HD
ATOM     53  H   UNL     1      -7.891  -8.511  19.835  0.00  0.00    +0.000 HD
ATOM     54  H   UNL     1      -9.190  -9.112  20.944  0.00  0.00    +0.000 HD
ENDBRANCH  50  51
ENDBRANCH  41  50
ENDBRANCH  33  39
ENDBRANCH  30  33
ENDBRANCH   1  30
TORSDOF 10
ENDMDL
MODEL 3
REMARK VINA RESULT:    -9.578      1.841      2.936
REMARK INTER + INTRA:         -14.586
REMARK INTER:                 -14.227
REMARK INTRA:                  -0.358
REMARK UNBOUND:                -0.248
REMARK  Name = 
REMARK  10 active torsions:
REMARK  status: ('A' for Active; 'I' for Inactive)
REMARK    1  A    between atoms: C_1  and  O_2
REMARK    2  A    between atoms: O_2  and  C_3
REMARK    3  A    between atoms: C_6  and  C_7
REMARK    4  A    between atoms: C_7  and  C_8
REMARK    5  A    between atoms: C_8  and  N_9
REMARK    6  A    between atoms: N_9  and  C_10
REMARK    7  A    between atoms: N_15  and  C_16
REMARK    8  A    between atoms: C_21  and  N_22
REMARK    9  A    between atoms: C_24  and  O_25
REMARK   10  A    between atoms: O_25  and  C_26
REMARK                            x       y       z     vdW  Elec       q    Type
REMARK                         _______ _______ _______ _____ _____    ______ ____
ROOT
ATOM      1  N   UNL     1      -8.964  -6.207  17.478  0.00  0.00    +0.000 N 
ATOM      2  H   UNL     1      -9.962  -6.183  17.680  0.00  0.00    +0.000 HD
ENDROOT
BRANCH   1   3
ATOM      3  C   UNL     1      -8.259  -5.632  18.556  0.00  0.00    +0.000 A 
ATOM      4  N   UNL     1      -7.004  -6.036  18.814  0.00  0.00    +0.000 NA
ATOM      5  C   UNL     1      -6.389  -5.449  19.845  0.00  0.00    +0.000 A 
ATOM      6  N   UNL     1      -6.904  -4.474  20.581  0.00  0.00    +0.000 N 
ATOM      7  C   UNL     1      -8.128  -3.999  20.339  0.00  0.00    +0.000 A 
ATOM      8  N   UNL     1      -8.641  -2.962  21.102  0.00  0.00    +0.000 N 
ATOM      9  C   UNL     1      -8.880  -4.599  19.296  0.00  0.00    +0.000 A 
ATOM     10  H   UNL     1      -5.389  -5.795  20.095  0.00  0.00    +0.000 HD
ATOM     11  H   UNL     1      -6.361  -4.093  21.337  0.00  0.00    +0.000 HD
ATOM     12  H   UNL     1      -9.070  -2.233  20.531  0.00  0.00    +0.000 HD
BRANCH   8  13
ATOM     13  C   UNL     1      -8.116  -2.493  22.383  0.00  0.00    +0.000 C 
ATOM     14  C   UNL     1      -8.809  -3.251  23.517  0.00  0.00    +0.000 C 
ATOM     15  C   UNL     1      -8.914  -2.292  24.696  0.00  0.00    +0.000 C 
ATOM     16  C   UNL     1      -8.503  -0.917  24.190  0.00  0.00    +0.000 C 
ATOM     17  C   UNL     1      -8.410  -1.024  22.672  0.00  0.00    +0.000 C 
ATOM     18  H   UNL     1      -7.036  -2.678  22.436  0.00  0.00    +0.000 HD
ATOM     19  H   UNL     1      -8.242  -4.150  23.787  0.00  0.00    +0.000 HD
ATOM     20  H   UNL     1      -9.814  -3.587  23.233  0.00  0.00    +0.000 HD
ATOM     21  H   UNL     1      -8.267  -2.609  25.521  0.00  0.00    +0.000 HD
ATOM     22  H   UNL     1      -9.940  -2.275  25.081  0.00  0.00    +0.000 HD
ATOM     23  H   UNL     1      -7.531  -0.642  24.616  0.00  0.00    +0.000 HD
ATOM     24  H   UNL     1      -9.218  -0.145  24.494  0.00  0.00    +0.000 HD
ATOM     25  H   UNL     1      -7.611  -0.370  22.305  0.00  0.00    +0.000 HD
ATOM     26  H   UNL     1      -9.343  -0.689  22.206  0.00  0.00    +0.000 HD
ENDBRANCH   8  13
BRANCH   9  27
ATOM     27  N   UNL     1     -10.267  -4.357  19.155  0.00  0.00    +0.000 N 
ATOM     28  H   UNL     1     -10.889  -4.938  19.708  0.00  0.00    +0.000 HD
ATOM     29  H   UNL     1     -10.514  -3.368  19.182  0.00  0.00    +0.000 HD
ENDBRANCH   9  27
ENDBRANCH   1   3
BRANCH   1  30
ATOM     30  C   UNL     1      -8.512  -7.561  17.113  0.00  0.00    +0.000 C 
ATOM     31  H   UNL     1      -8.129  -7.565  16.083  0.00  0.00    +0.000 HD
ATOM     32  H   UNL     1      -7.697  -7.864  17.779  0.00  0.00    +0.000 HD
BRANCH  30  33
ATOM     33  C   UNL     1      -9.670  -8.563  17.205  0.00  0.00    +0.000 C 
ATOM     34  H   UNL     1     -10.078  -8.582  18.223  0.00  0.00    +0.000 HD
ATOM     35  H   UNL     1     -10.489  -8.224  16.556  0.00  0.00    +0.000 HD
BRANCH  33  39
ATOM     36  C   UNL     1      -8.520 -12.612  16.124  0.00  0.00    +0.000 A 
ATOM     37  C   UNL     1      -8.966 -11.705  15.153  0.00  0.00    +0.000 A 
ATOM     38  C   UNL     1      -9.322 -10.395  15.496  0.00  0.00    +0.000 A 
ATOM     39  C   UNL     1      -9.256  -9.965  16.823  0.00  0.00    +0.000 A 
ATOM     40  C   UNL     1      -8.825 -10.877  17.794  0.00  0.00    +0.000 A 
ATOM     41  C   UNL     1      -8.436 -12.183  17.458  0.00  0.00    +0.000 A 
ATOM     42  H   UNL     1      -9.080 -11.998  14.114  0.00  0.00    +0.000 HD
ATOM     43  H   UNL     1      -9.673  -9.726  14.713  0.00  0.00    +0.000 HD
ATOM     44  H   UNL     1      -8.782 -10.585  18.842  0.00  0.00    +0.000 HD
BRANCH  36  45
ATOM     45  O   UNL     1      -8.237 -13.922  15.847  0.00  0.00    +0.000 OA
BRANCH  45  46
ATOM     46  C   UNL     1      -8.958 -14.538  14.787  0.00  0.00    +0.000 C 
ATOM     47  H   UNL     1      -8.883 -13.886  13.912  0.00  0.00    +0.000 HD
ATOM     48  H   UNL     1     -10.018 -14.638  15.042  0.00  0.00    +0.000 HD
ATOM     49  H   UNL     1      -8.521 -15.503  14.512  0.00  0.00    +0.000 HD
ENDBRANCH  45  46
ENDBRANCH  36  45
BRANCH  41  50
ATOM     50  O   UNL     1      -8.038 -12.920  18.544  0.00  0.00    +0.000 OA
BRANCH  50  51
ATOM     51  C   UNL     1      -8.855 -14.030  18.900  0.00  0.00    +0.000 C 
ATOM     52  H   UNL     1      -8.769 -14.169  19.983  0.00  0.00    +0.000 HD
ATOM     53  H   UNL     1      -8.519 -14.958  18.425  0.00  0.00    +0.000 HD
ATOM     54  H   UNL     1      -9.908 -13.825  18.686  0.00  0.00    +0.000 HD
ENDBRANCH  50  51
ENDBRANCH  41  50
ENDBRANCH  33  39
ENDBRANCH  30  33
ENDBRANCH   1  30
TORSDOF 10
ENDMDL
MODEL 4
REMARK VINA RESULT:    -9.547      1.834      2.899
REMARK INTER + INTRA:         -14.538
REMARK INTER:                 -13.726
REMARK INTRA:                  -0.813
REMARK UNBOUND:                -0.248
REMARK  Name = 
REMARK  10 active torsions:
REMARK  status: ('A' for Active; 'I' for Inactive)
REMARK    1  A    between atoms: C_1  and  O_2
REMARK    2  A    between atoms: O_2  and  C_3
REMARK    3  A    between atoms: C_6  and  C_7
REMARK    4  A    between atoms: C_7  and  C_8
REMARK    5  A    between atoms: C_8  and  N_9
REMARK    6  A    between atoms: N_9  and  C_10
REMARK    7  A    between atoms: N_15  and  C_16
REMARK    8  A    between atoms: C_21  and  N_22
REMARK    9  A    between atoms: C_24  and  O_25
REMARK   10  A    between atoms: O_25  and  C_26
REMARK                            x       y       z     vdW  Elec       q    Type
REMARK                         _______ _______ _______ _____ _____    ______ ____
ROOT
ATOM      1  N   UNL     1      -9.901  -6.447  17.021  0.00  0.00    +0.000 N 
ATOM      2  H   UNL     1     -10.660  -6.915  17.514  0.00  0.00    +0.000 HD
ENDROOT
BRANCH   1   3
ATOM      3  C   UNL     1      -8.993  -5.918  17.962  0.00  0.00    +0.000 A 
ATOM      4  N   UNL     1      -7.748  -6.418  18.030  0.00  0.00    +0.000 NA
ATOM      5  C   UNL     1      -6.935  -5.870  18.939  0.00  0.00    +0.000 A 
ATOM      6  N   UNL     1      -7.251  -4.848  19.721  0.00  0.00    +0.000 N 
ATOM      7  C   UNL     1      -8.457  -4.279  19.661  0.00  0.00    +0.000 A 
ATOM      8  N   UNL     1      -8.762  -3.195  20.469  0.00  0.00    +0.000 N 
ATOM      9  C   UNL     1      -9.408  -4.829  18.764  0.00  0.00    +0.000 A 
ATOM     10  H   UNL     1      -5.938  -6.292  19.037  0.00  0.00    +0.000 HD
ATOM     11  H   UNL     1      -6.568  -4.503  20.374  0.00  0.00    +0.000 HD
ATOM     12  H   UNL     1      -9.217  -2.441  19.955  0.00  0.00    +0.000 HD
BRANCH   8  13
ATOM     13  C   UNL     1      -8.007  -2.755  21.641  0.00  0.00    +0.000 C 
ATOM     14  C   UNL     1      -8.432  -3.586  22.854  0.00  0.00    +0.000 C 
ATOM     15  C   UNL     1      -8.332  -2.679  24.073  0.00  0.00    +0.000 C 
ATOM     16  C   UNL     1      -8.078  -1.269  23.561  0.00  0.00    +0.000 C 
ATOM     17  C   UNL     1      -8.288  -1.312  22.051  0.00  0.00    +0.000 C 
ATOM     18  H   UNL     1      -6.933  -2.894  21.469  0.00  0.00    +0.000 HD
ATOM     19  H   UNL     1      -7.792  -4.469  22.962  0.00  0.00    +0.000 HD
ATOM     20  H   UNL     1      -9.461  -3.954  22.759  0.00  0.00    +0.000 HD
ATOM     21  H   UNL     1      -7.522  -3.000  24.737  0.00  0.00    +0.000 HD
ATOM     22  H   UNL     1      -9.260  -2.722  24.655  0.00  0.00    +0.000 HD
ATOM     23  H   UNL     1      -7.050  -0.969  23.798  0.00  0.00    +0.000 HD
ATOM     24  H   UNL     1      -8.744  -0.541  24.037  0.00  0.00    +0.000 HD
ATOM     25  H   UNL     1      -7.601  -0.610  21.564  0.00  0.00    +0.000 HD
ATOM     26  H   UNL     1      -9.307  -1.000  21.797  0.00  0.00    +0.000 HD
ENDBRANCH   8  13
BRANCH   9  27
ATOM     27  N   UNL     1     -10.777  -4.478  18.835  0.00  0.00    +0.000 N 
ATOM     28  H   UNL     1     -11.447  -5.217  18.649  0.00  0.00    +0.000 HD
ATOM     29  H   UNL     1     -11.013  -3.921  19.655  0.00  0.00    +0.000 HD
ENDBRANCH   9  27
ENDBRANCH   1   3
BRANCH   1  30
ATOM     30  C   UNL     1      -9.283  -7.323  16.011  0.00  0.00    +0.000 C 
ATOM     31  H   UNL     1      -9.220  -6.801  15.046  0.00  0.00    +0.000 HD
ATOM     32  H   UNL     1      -8.265  -7.579  16.325  0.00  0.00    +0.000 HD
BRANCH  30  33
ATOM     33  C   UNL     1     -10.112  -8.600  15.818  0.00  0.00    +0.000 C 
ATOM     34  H   UNL     1     -11.133  -8.452  16.194  0.00  0.00    +0.000 HD
ATOM     35  H   UNL     1     -10.212  -8.803  14.744  0.00  0.00    +0.000 HD
BRANCH  33  39
ATOM     36  C   UNL     1      -8.413 -12.046  17.848  0.00  0.00    +0.000 A 
ATOM     37  C   UNL     1      -8.859 -12.137  16.522  0.00  0.00    +0.000 A 
ATOM     38  C   UNL     1      -9.392 -11.024  15.860  0.00  0.00    +0.000 A 
ATOM     39  C   UNL     1      -9.508  -9.796  16.515  0.00  0.00    +0.000 A 
ATOM     40  C   UNL     1      -9.076  -9.711  17.845  0.00  0.00    +0.000 A 
ATOM     41  C   UNL     1      -8.511 -10.811  18.508  0.00  0.00    +0.000 A 
ATOM     42  H   UNL     1      -8.836 -13.077  15.980  0.00  0.00    +0.000 HD
ATOM     43  H   UNL     1      -9.736 -11.140  14.835  0.00  0.00    +0.000 HD
ATOM     44  H   UNL     1      -9.171  -8.776  18.395  0.00  0.00    +0.000 HD
BRANCH  36  45
ATOM     45  O   UNL     1      -7.959 -13.124  18.558  0.00  0.00    +0.000 OA
BRANCH  45  46
ATOM     46  C   UNL     1      -8.886 -14.168  18.828  0.00  0.00    +0.000 C 
ATOM     47  H   UNL     1      -9.588 -14.215  17.989  0.00  0.00    +0.000 HD
ATOM     48  H   UNL     1      -9.461 -13.955  19.735  0.00  0.00    +0.000 HD
ATOM     49  H   UNL     1      -8.389 -15.141  18.891  0.00  0.00    +0.000 HD
ENDBRANCH  45  46
ENDBRANCH  36  45
BRANCH  41  50
ATOM     50  O   UNL     1      -8.143 -10.528  19.799  0.00  0.00    +0.000 OA
BRANCH  50  51
ATOM     51  C   UNL     1      -8.716  -9.366  20.389  0.00  0.00    +0.000 C 
ATOM     52  H   UNL     1      -9.661  -9.665  20.855  0.00  0.00    +0.000 HD
ATOM     53  H   UNL     1      -8.950  -8.598  19.643  0.00  0.00    +0.000 HD
ATOM     54  H   UNL     1      -8.076  -8.974  21.184  0.00  0.00    +0.000 HD
ENDBRANCH  50  51
ENDBRANCH  41  50
ENDBRANCH  33  39
ENDBRANCH  30  33
ENDBRANCH   1  30
TORSDOF 10
ENDMDL
MODEL 5
REMARK VINA RESULT:    -9.272      2.571      4.242
REMARK INTER + INTRA:         -14.127
REMARK INTER:                 -13.555
REMARK INTRA:                  -0.571
REMARK UNBOUND:                -0.248
REMARK  Name = 
REMARK  10 active torsions:
REMARK  status: ('A' for Active; 'I' for Inactive)
REMARK    1  A    between atoms: C_1  and  O_2
REMARK    2  A    between atoms: O_2  and  C_3
REMARK    3  A    between atoms: C_6  and  C_7
REMARK    4  A    between atoms: C_7  and  C_8
REMARK    5  A    between atoms: C_8  and  N_9
REMARK    6  A    between atoms: N_9  and  C_10
REMARK    7  A    between atoms: N_15  and  C_16
REMARK    8  A    between atoms: C_21  and  N_22
REMARK    9  A    between atoms: C_24  and  O_25
REMARK   10  A    between atoms: O_25  and  C_26
REMARK                            x       y       z     vdW  Elec       q    Type
REMARK                         _______ _______ _______ _____ _____    ______ ____
ROOT
ATOM      1  N   UNL     1      -8.502  -5.169  18.325  0.00  0.00    +0.000 N 
ATOM      2  H   UNL     1      -9.510  -5.033  18.368  0.00  0.00    +0.000 HD
ENDROOT
BRANCH   1   3
ATOM      3  C   UNL     1      -7.914  -4.649  19.497  0.00  0.00    +0.000 A 
ATOM      4  N   UNL     1      -6.706  -5.095  19.883  0.00  0.00    +0.000 NA
ATOM      5  C   UNL     1      -6.203  -4.559  20.999  0.00  0.00    +0.000 A 
ATOM      6  N   UNL     1      -6.777  -3.595  21.705  0.00  0.00    +0.000 N 
ATOM      7  C   UNL     1      -7.954  -3.080  21.340  0.00  0.00    +0.000 A 
ATOM      8  N   UNL     1      -8.529  -2.056  22.076  0.00  0.00    +0.000 N 
ATOM      9  C   UNL     1      -8.593  -3.625  20.197  0.00  0.00    +0.000 A 
ATOM     10  H   UNL     1      -5.246  -4.939  21.349  0.00  0.00    +0.000 HD
ATOM     11  H   UNL     1      -6.317  -3.254  22.532  0.00  0.00    +0.000 HD
ATOM     12  H   UNL     1      -8.871  -1.297  21.487  0.00  0.00    +0.000 HD
BRANCH   8  13
ATOM     13  C   UNL     1      -8.145  -1.644  23.425  0.00  0.00    +0.000 C 
ATOM     14  C   UNL     1      -8.872  -2.524  24.445  0.00  0.00    +0.000 C 
ATOM     15  C   UNL     1      -9.143  -1.658  25.668  0.00  0.00    +0.000 C 
ATOM     16  C   UNL     1      -8.791  -0.228  25.289  0.00  0.00    +0.000 C 
ATOM     17  C   UNL     1      -8.568  -0.221  23.781  0.00  0.00    +0.000 C 
ATOM     18  H   UNL     1      -7.063  -1.759  23.559  0.00  0.00    +0.000 HD
ATOM     19  H   UNL     1      -8.266  -3.399  24.704  0.00  0.00    +0.000 HD
ATOM     20  H   UNL     1      -9.823  -2.905  24.053  0.00  0.00    +0.000 HD
ATOM     21  H   UNL     1      -8.543  -1.989  26.524  0.00  0.00    +0.000 HD
ATOM     22  H   UNL     1     -10.195  -1.737  25.963  0.00  0.00    +0.000 HD
ATOM     23  H   UNL     1      -7.880   0.082  25.815  0.00  0.00    +0.000 HD
ATOM     24  H   UNL     1      -9.583   0.472  25.579  0.00  0.00    +0.000 HD
ATOM     25  H   UNL     1      -7.790   0.509  23.527  0.00  0.00    +0.000 HD
ATOM     26  H   UNL     1      -9.481   0.083  23.259  0.00  0.00    +0.000 HD
ENDBRANCH   8  13
BRANCH   9  27
ATOM     27  N   UNL     1      -9.949  -3.341  19.906  0.00  0.00    +0.000 N 
ATOM     28  H   UNL     1     -10.203  -2.362  19.833  0.00  0.00    +0.000 HD
ATOM     29  H   UNL     1     -10.332  -3.913  19.155  0.00  0.00    +0.000 HD
ENDBRANCH   9  27
ENDBRANCH   1   3
BRANCH   1  30
ATOM     30  C   UNL     1      -8.150  -6.571  18.043  0.00  0.00    +0.000 C 
ATOM     31  H   UNL     1      -7.682  -6.651  17.051  0.00  0.00    +0.000 HD
ATOM     32  H   UNL     1      -7.427  -6.922  18.788  0.00  0.00    +0.000 HD
BRANCH  30  33
ATOM     33  C   UNL     1      -9.401  -7.459  18.060  0.00  0.00    +0.000 C 
ATOM     34  H   UNL     1     -10.058  -7.175  18.892  0.00  0.00    +0.000 HD
ATOM     35  H   UNL     1      -9.979  -7.282  17.143  0.00  0.00    +0.000 HD
BRANCH  33  39
ATOM     36  C   UNL     1      -8.410 -11.677  18.391  0.00  0.00    +0.000 A 
ATOM     37  C   UNL     1      -8.190 -10.798  19.460  0.00  0.00    +0.000 A 
ATOM     38  C   UNL     1      -8.523  -9.442  19.362  0.00  0.00    +0.000 A 
ATOM     39  C   UNL     1      -9.069  -8.928  18.184  0.00  0.00    +0.000 A 
ATOM     40  C   UNL     1      -9.274  -9.805  17.112  0.00  0.00    +0.000 A 
ATOM     41  C   UNL     1      -8.974 -11.172  17.209  0.00  0.00    +0.000 A 
ATOM     42  H   UNL     1      -7.726 -11.134  20.382  0.00  0.00    +0.000 HD
ATOM     43  H   UNL     1      -8.326  -8.792  20.213  0.00  0.00    +0.000 HD
ATOM     44  H   UNL     1      -9.678  -9.436  16.170  0.00  0.00    +0.000 HD
BRANCH  36  45
ATOM     45  O   UNL     1      -8.028 -12.991  18.414  0.00  0.00    +0.000 OA
BRANCH  45  46
ATOM     46  C   UNL     1      -9.004 -13.950  18.801  0.00  0.00    +0.000 C 
ATOM     47  H   UNL     1      -9.242 -14.556  17.921  0.00  0.00    +0.000 HD
ATOM     48  H   UNL     1      -9.925 -13.459  19.131  0.00  0.00    +0.000 HD
ATOM     49  H   UNL     1      -8.618 -14.629  19.568  0.00  0.00    +0.000 HD
ENDBRANCH  45  46
ENDBRANCH  36  45
BRANCH  41  50
ATOM     50  O   UNL     1      -9.251 -11.865  16.058  0.00  0.00    +0.000 OA
BRANCH  50  51
ATOM     51  C   UNL     1      -8.241 -11.872  15.055  0.00  0.00    +0.000 C 
ATOM     52  H   UNL     1      -8.185 -12.889  14.652  0.00  0.00    +0.000 HD
ATOM     53  H   UNL     1      -7.255 -11.627  15.462  0.00  0.00    +0.000 HD
ATOM     54  H   UNL     1      -8.510 -11.214  14.224  0.00  0.00    +0.000 HD
ENDBRANCH  50  51
ENDBRANCH  41  50
ENDBRANCH  33  39
ENDBRANCH  30  33
ENDBRANCH   1  30
TORSDOF 10
ENDMDL
MODEL 6
REMARK VINA RESULT:    -9.225      2.571      5.076
REMARK INTER + INTRA:         -14.057
REMARK INTER:                 -13.356
REMARK INTRA:                  -0.701
REMARK UNBOUND:                -0.248
REMARK  Name = 
REMARK  10 active torsions:
REMARK  status: ('A' for Active; 'I' for Inactive)
REMARK    1  A    between atoms: C_1  and  O_2
REMARK    2  A    between atoms: O_2  and  C_3
REMARK    3  A    between atoms: C_6  and  C_7
REMARK    4  A    between atoms: C_7  and  C_8
REMARK    5  A    between atoms: C_8  and  N_9
REMARK    6  A    between atoms: N_9  and  C_10
REMARK    7  A    between atoms: N_15  and  C_16
REMARK    8  A    between atoms: C_21  and  N_22
REMARK    9  A    between atoms: C_24  and  O_25
REMARK   10  A    between atoms: O_25  and  C_26
REMARK                            x       y       z     vdW  Elec       q    Type
REMARK                         _______ _______ _______ _____ _____    ______ ____
ROOT
ATOM      1  N   UNL     1     -10.131  -7.534  18.793  0.00  0.00    +0.000 N 
ATOM      2  H   UNL     1     -10.544  -7.443  19.720  0.00  0.00    +0.000 HD
ENDROOT
BRANCH   1   3
ATOM      3  C   UNL     1     -10.175  -6.283  18.141  0.00  0.00    +0.000 A 
ATOM      4  N   UNL     1      -9.811  -5.177  18.811  0.00  0.00    +0.000 NA
ATOM      5  C   UNL     1      -9.870  -4.025  18.136  0.00  0.00    +0.000 A 
ATOM      6  N   UNL     1     -10.201  -3.911  16.858  0.00  0.00    +0.000 N 
ATOM      7  C   UNL     1     -10.525  -4.982  16.130  0.00  0.00    +0.000 A 
ATOM      8  N   UNL     1     -10.846  -4.847  14.788  0.00  0.00    +0.000 N 
ATOM      9  C   UNL     1     -10.544  -6.244  16.776  0.00  0.00    +0.000 A 
ATOM     10  H   UNL     1      -9.620  -3.115  18.676  0.00  0.00    +0.000 HD
ATOM     11  H   UNL     1     -10.214  -2.997  16.436  0.00  0.00    +0.000 HD
ATOM     12  H   UNL     1     -10.371  -5.534  14.202  0.00  0.00    +0.000 HD
BRANCH   8  13
ATOM     13  C   UNL     1     -11.178  -3.600  14.103  0.00  0.00    +0.000 C 
ATOM     14  C   UNL     1     -12.151  -3.898  12.961  0.00  0.00    +0.000 C 
ATOM     15  C   UNL     1     -11.850  -2.904  11.847  0.00  0.00    +0.000 C 
ATOM     16  C   UNL     1     -10.567  -2.182  12.229  0.00  0.00    +0.000 C 
ATOM     17  C   UNL     1      -9.986  -2.931  13.423  0.00  0.00    +0.000 C 
ATOM     18  H   UNL     1     -11.651  -2.901  14.804  0.00  0.00    +0.000 HD
ATOM     19  H   UNL     1     -13.189  -3.810  13.301  0.00  0.00    +0.000 HD
ATOM     20  H   UNL     1     -12.033  -4.919  12.577  0.00  0.00    +0.000 HD
ATOM     21  H   UNL     1     -12.672  -2.190  11.723  0.00  0.00    +0.000 HD
ATOM     22  H   UNL     1     -11.734  -3.428  10.891  0.00  0.00    +0.000 HD
ATOM     23  H   UNL     1     -10.792  -1.143  12.498  0.00  0.00    +0.000 HD
ATOM     24  H   UNL     1      -9.858  -2.151  11.393  0.00  0.00    +0.000 HD
ATOM     25  H   UNL     1      -9.482  -2.224  14.091  0.00  0.00    +0.000 HD
ATOM     26  H   UNL     1      -9.237  -3.658  13.093  0.00  0.00    +0.000 HD
ENDBRANCH   8  13
BRANCH   9  27
ATOM     27  N   UNL     1     -11.139  -7.375  16.167  0.00  0.00    +0.000 N 
ATOM     28  H   UNL     1     -11.949  -7.770  16.633  0.00  0.00    +0.000 HD
ATOM     29  H   UNL     1     -11.264  -7.277  15.160  0.00  0.00    +0.000 HD
ENDBRANCH   9  27
ENDBRANCH   1   3
BRANCH   1  30
ATOM     30  C   UNL     1      -8.790  -8.140  18.849  0.00  0.00    +0.000 C 
ATOM     31  H   UNL     1      -8.328  -8.127  17.852  0.00  0.00    +0.000 HD
ATOM     32  H   UNL     1      -8.155  -7.555  19.524  0.00  0.00    +0.000 HD
BRANCH  30  33
ATOM     33  C   UNL     1      -8.871  -9.595  19.328  0.00  0.00    +0.000 C 
ATOM     34  H   UNL     1      -8.035  -9.822  20.001  0.00  0.00    +0.000 HD
ATOM     35  H   UNL     1      -9.784  -9.726  19.924  0.00  0.00    +0.000 HD
BRANCH  33  39
ATOM     36  C   UNL     1      -8.790 -12.419  16.026  0.00  0.00    +0.000 A 
ATOM     37  C   UNL     1      -8.394 -12.804  17.314  0.00  0.00    +0.000 A 
ATOM     38  C   UNL     1      -8.434 -11.900  18.384  0.00  0.00    +0.000 A 
ATOM     39  C   UNL     1      -8.856 -10.584  18.186  0.00  0.00    +0.000 A 
ATOM     40  C   UNL     1      -9.237 -10.198  16.894  0.00  0.00    +0.000 A 
ATOM     41  C   UNL     1      -9.231 -11.103  15.822  0.00  0.00    +0.000 A 
ATOM     42  H   UNL     1      -8.014 -13.800  17.516  0.00  0.00    +0.000 HD
ATOM     43  H   UNL     1      -8.108 -12.237  19.365  0.00  0.00    +0.000 HD
ATOM     44  H   UNL     1      -9.551  -9.173  16.697  0.00  0.00    +0.000 HD
BRANCH  36  45
ATOM     45  O   UNL     1      -8.693 -13.244  14.938  0.00  0.00    +0.000 OA
BRANCH  45  46
ATOM     46  C   UNL     1      -8.733 -14.646  15.174  0.00  0.00    +0.000 C 
ATOM     47  H   UNL     1      -7.701 -14.994  15.289  0.00  0.00    +0.000 HD
ATOM     48  H   UNL     1      -9.171 -15.173  14.320  0.00  0.00    +0.000 HD
ATOM     49  H   UNL     1      -9.261 -14.883  16.102  0.00  0.00    +0.000 HD
ENDBRANCH  45  46
ENDBRANCH  36  45
BRANCH  41  50
ATOM     50  O   UNL     1      -9.644 -10.538  14.642  0.00  0.00    +0.000 OA
BRANCH  50  51
ATOM     51  C   UNL     1      -8.949  -9.373  14.210  0.00  0.00    +0.000 C 
ATOM     52  H   UNL     1      -9.143  -8.583  14.944  0.00  0.00    +0.000 HD
ATOM     53  H   UNL     1      -9.310  -9.013  13.241  0.00  0.00    +0.000 HD
ATOM     54  H   UNL     1      -7.869  -9.543  14.201  0.00  0.00    +0.000 HD
ENDBRANCH  50  51
ENDBRANCH  41  50
ENDBRANCH  33  39
ENDBRANCH  30  33
ENDBRANCH   1  30
TORSDOF 10
ENDMDL
MODEL 7
REMARK VINA RESULT:    -9.168      2.383      2.807
REMARK INTER + INTRA:         -13.971
REMARK INTER:                 -13.699
REMARK INTRA:                  -0.272
REMARK UNBOUND:                -0.248
REMARK  Name = 
REMARK  10 active torsions:
REMARK  status: ('A' for Active; 'I' for Inactive)
REMARK    1  A    between atoms: C_1  and  O_2
REMARK    2  A    between atoms: O_2  and  C_3
REMARK    3  A    between atoms: C_6  and  C_7
REMARK    4  A    between atoms: C_7  and  C_8
REMARK    5  A    between atoms: C_8  and  N_9
REMARK    6  A    between atoms: N_9  and  C_10
REMARK    7  A    between atoms: N_15  and  C_16
REMARK    8  A    between atoms: C_21  and  N_22
REMARK    9  A    between atoms: C_24  and  O_25
REMARK   10  A    between atoms: O_25  and  C_26
REMARK                            x       y       z     vdW  Elec       q    Type
REMARK                         _______ _______ _______ _____ _____    ______ ____
ROOT
ATOM      1  N   UNL     1     -11.114  -6.985  16.100  0.00  0.00    +0.000 N 
ATOM      2  H   UNL     1     -11.768  -7.415  16.753  0.00  0.00    +0.000 HD
ENDROOT
BRANCH   1   3
ATOM      3  C   UNL     1     -10.986  -5.614  16.408  0.00  0.00    +0.000 A 
ATOM      4  N   UNL     1     -10.760  -4.734  15.418  0.00  0.00    +0.000 NA
ATOM      5  C   UNL     1     -10.654  -3.451  15.775  0.00  0.00    +0.000 A 
ATOM      6  N   UNL     1     -10.811  -2.991  17.008  0.00  0.00    +0.000 N 
ATOM      7  C   UNL     1     -11.086  -3.814  18.023  0.00  0.00    +0.000 A 
ATOM      8  N   UNL     1     -11.271  -3.312  19.301  0.00  0.00    +0.000 N 
ATOM      9  C   UNL     1     -11.163  -5.203  17.750  0.00  0.00    +0.000 A 
ATOM     10  H   UNL     1     -10.427  -2.731  14.992  0.00  0.00    +0.000 HD
ATOM     11  H   UNL     1     -10.713  -2.004  17.177  0.00  0.00    +0.000 HD
ATOM     12  H   UNL     1     -12.097  -3.700  19.757  0.00  0.00    +0.000 HD
BRANCH   8  13
ATOM     13  C   UNL     1     -10.901  -1.976  19.765  0.00  0.00    +0.000 C 
ATOM     14  C   UNL     1      -9.443  -1.993  20.231  0.00  0.00    +0.000 C 
ATOM     15  C   UNL     1      -9.330  -0.998  21.379  0.00  0.00    +0.000 C 
ATOM     16  C   UNL     1     -10.745  -0.571  21.740  0.00  0.00    +0.000 C 
ATOM     17  C   UNL     1     -11.685  -1.506  20.987  0.00  0.00    +0.000 C 
ATOM     18  H   UNL     1     -11.007  -1.253  18.948  0.00  0.00    +0.000 HD
ATOM     19  H   UNL     1      -8.769  -1.729  19.409  0.00  0.00    +0.000 HD
ATOM     20  H   UNL     1      -9.136  -2.986  20.582  0.00  0.00    +0.000 HD
ATOM     21  H   UNL     1      -8.727  -0.130  21.088  0.00  0.00    +0.000 HD
ATOM     22  H   UNL     1      -8.831  -1.462  22.236  0.00  0.00    +0.000 HD
ATOM     23  H   UNL     1     -10.907   0.469  21.432  0.00  0.00    +0.000 HD
ATOM     24  H   UNL     1     -10.916  -0.618  22.821  0.00  0.00    +0.000 HD
ATOM     25  H   UNL     1     -12.593  -0.962  20.701  0.00  0.00    +0.000 HD
ATOM     26  H   UNL     1     -11.993  -2.339  21.628  0.00  0.00    +0.000 HD
ENDBRANCH   8  13
BRANCH   9  27
ATOM     27  N   UNL     1     -11.169  -6.159  18.793  0.00  0.00    +0.000 N 
ATOM     28  H   UNL     1     -10.426  -6.088  19.480  0.00  0.00    +0.000 HD
ATOM     29  H   UNL     1     -12.088  -6.303  19.209  0.00  0.00    +0.000 HD
ENDBRANCH   9  27
ENDBRANCH   1   3
BRANCH   1  30
ATOM     30  C   UNL     1      -9.836  -7.715  16.047  0.00  0.00    +0.000 C 
ATOM     31  H   UNL     1      -9.776  -8.303  15.120  0.00  0.00    +0.000 HD
ATOM     32  H   UNL     1      -9.007  -6.998  16.048  0.00  0.00    +0.000 HD
BRANCH  30  33
ATOM     33  C   UNL     1      -9.707  -8.673  17.238  0.00  0.00    +0.000 C 
ATOM     34  H   UNL     1      -8.991  -8.279  17.970  0.00  0.00    +0.000 HD
ATOM     35  H   UNL     1     -10.673  -8.729  17.759  0.00  0.00    +0.000 HD
BRANCH  33  39
ATOM     36  C   UNL     1      -8.473 -12.672  16.066  0.00  0.00    +0.000 A 
ATOM     37  C   UNL     1      -8.901 -11.740  15.111  0.00  0.00    +0.000 A 
ATOM     38  C   UNL     1      -9.284 -10.445  15.484  0.00  0.00    +0.000 A 
ATOM     39  C   UNL     1      -9.264 -10.057  16.825  0.00  0.00    +0.000 A 
ATOM     40  C   UNL     1      -8.851 -10.995  17.780  0.00  0.00    +0.000 A 
ATOM     41  C   UNL     1      -8.436 -12.285  17.415  0.00  0.00    +0.000 A 
ATOM     42  H   UNL     1      -8.979 -12.001  14.061  0.00  0.00    +0.000 HD
ATOM     43  H   UNL     1      -9.619  -9.756  14.711  0.00  0.00    +0.000 HD
ATOM     44  H   UNL     1      -8.845 -10.736  18.838  0.00  0.00    +0.000 HD
BRANCH  36  45
ATOM     45  O   UNL     1      -8.166 -13.969  15.758  0.00  0.00    +0.000 OA
BRANCH  45  46
ATOM     46  C   UNL     1      -8.904 -14.586  14.711  0.00  0.00    +0.000 C 
ATOM     47  H   UNL     1      -9.672 -15.215  15.171  0.00  0.00    +0.000 HD
ATOM     48  H   UNL     1      -8.259 -15.232  14.106  0.00  0.00    +0.000 HD
ATOM     49  H   UNL     1      -9.419 -13.846  14.091  0.00  0.00    +0.000 HD
ENDBRANCH  45  46
ENDBRANCH  36  45
BRANCH  41  50
ATOM     50  O   UNL     1      -8.062 -13.052  18.490  0.00  0.00    +0.000 OA
BRANCH  50  51
ATOM     51  C   UNL     1      -8.925 -14.128  18.840  0.00  0.00    +0.000 C 
ATOM     52  H   UNL     1      -8.319 -15.040  18.867  0.00  0.00    +0.000 HD
ATOM     53  H   UNL     1      -9.713 -14.283  18.095  0.00  0.00    +0.000 HD
ATOM     54  H   UNL     1      -9.339 -13.988  19.842  0.00  0.00    +0.000 HD
ENDBRANCH  50  51
ENDBRANCH  41  50
ENDBRANCH  33  39
ENDBRANCH  30  33
ENDBRANCH   1  30
TORSDOF 10
ENDMDL
MODEL 8
REMARK VINA RESULT:    -9.162      4.478      9.810
REMARK INTER + INTRA:         -13.963
REMARK INTER:                 -14.003
REMARK INTRA:                   0.040
REMARK UNBOUND:                -0.248
REMARK  Name = 
REMARK  10 active torsions:
REMARK  status: ('A' for Active; 'I' for Inactive)
REMARK    1  A    between atoms: C_1  and  O_2
REMARK    2  A    between atoms: O_2  and  C_3
REMARK    3  A    between atoms: C_6  and  C_7
REMARK    4  A    between atoms: C_7  and  C_8
REMARK    5  A    between atoms: C_8  and  N_9
REMARK    6  A    between atoms: N_9  and  C_10
REMARK    7  A    between atoms: N_15  and  C_16
REMARK    8  A    between atoms: C_21  and  N_22
REMARK    9  A    between atoms: C_24  and  O_25
REMARK   10  A    between atoms: O_25  and  C_26
REMARK                            x       y       z     vdW  Elec       q    Type
REMARK                         _______ _______ _______ _____ _____    ______ ____
ROOT
ATOM      1  N   UNL     1      -7.427  -5.146  19.314  0.00  0.00    +0.000 N 
ATOM      2  H   UNL     1      -6.430  -5.251  19.500  0.00  0.00    +0.000 HD
ENDROOT
BRANCH   1   3
ATOM      3  C   UNL     1      -8.018  -6.423  19.223  0.00  0.00    +0.000 A 
ATOM      4  N   UNL     1      -8.401  -7.054  20.346  0.00  0.00    +0.000 NA
ATOM      5  C   UNL     1      -8.959  -8.258  20.192  0.00  0.00    +0.000 A 
ATOM      6  N   UNL     1      -9.209  -8.835  19.025  0.00  0.00    +0.000 N 
ATOM      7  C   UNL     1      -8.896  -8.233  17.876  0.00  0.00    +0.000 A 
ATOM      8  N   UNL     1      -9.186  -8.840  16.664  0.00  0.00    +0.000 N 
ATOM      9  C   UNL     1      -8.248  -6.973  17.940  0.00  0.00    +0.000 A 
ATOM     10  H   UNL     1      -9.235  -8.801  21.093  0.00  0.00    +0.000 HD
ATOM     11  H   UNL     1      -9.637  -9.746  19.012  0.00  0.00    +0.000 HD
ATOM     12  H   UNL     1      -9.625  -8.199  16.002  0.00  0.00    +0.000 HD
BRANCH   8  13
ATOM     13  C   UNL     1      -9.540 -10.244  16.467  0.00  0.00    +0.000 C 
ATOM     14  C   UNL     1      -8.683 -11.112  17.391  0.00  0.00    +0.000 C 
ATOM     15  C   UNL     1      -8.435 -12.428  16.664  0.00  0.00    +0.000 C 
ATOM     16  C   UNL     1      -8.941 -12.253  15.240  0.00  0.00    +0.000 C 
ATOM     17  C   UNL     1      -9.239 -10.768  15.065  0.00  0.00    +0.000 C 
ATOM     18  H   UNL     1     -10.598 -10.402  16.708  0.00  0.00    +0.000 HD
ATOM     19  H   UNL     1      -9.188 -11.277  18.349  0.00  0.00    +0.000 HD
ATOM     20  H   UNL     1      -7.720 -10.640  17.621  0.00  0.00    +0.000 HD
ATOM     21  H   UNL     1      -8.956 -13.255  17.160  0.00  0.00    +0.000 HD
ATOM     22  H   UNL     1      -7.367 -12.671  16.672  0.00  0.00    +0.000 HD
ATOM     23  H   UNL     1      -9.850 -12.848  15.094  0.00  0.00    +0.000 HD
ATOM     24  H   UNL     1      -8.206 -12.602  14.506  0.00  0.00    +0.000 HD
ATOM     25  H   UNL     1     -10.095 -10.641  14.392  0.00  0.00    +0.000 HD
ATOM     26  H   UNL     1      -8.386 -10.256  14.607  0.00  0.00    +0.000 HD
ENDBRANCH   8  13
BRANCH   9  27
ATOM     27  N   UNL     1      -7.634  -6.401  16.800  0.00  0.00    +0.000 N 
ATOM     28  H   UNL     1      -7.090  -5.557  16.951  0.00  0.00    +0.000 HD
ATOM     29  H   UNL     1      -7.162  -7.081  16.207  0.00  0.00    +0.000 HD
ENDBRANCH   9  27
ENDBRANCH   1   3
BRANCH   1  30
ATOM     30  C   UNL     1      -8.073  -4.248  20.286  0.00  0.00    +0.000 C 
ATOM     31  H   UNL     1      -8.323  -3.290  19.808  0.00  0.00    +0.000 HD
ATOM     32  H   UNL     1      -9.004  -4.704  20.640  0.00  0.00    +0.000 HD
BRANCH  30  33
ATOM     33  C   UNL     1      -7.139  -3.968  21.471  0.00  0.00    +0.000 C 
ATOM     34  H   UNL     1      -6.941  -4.892  22.028  0.00  0.00    +0.000 HD
ATOM     35  H   UNL     1      -6.166  -3.631  21.088  0.00  0.00    +0.000 HD
BRANCH  33  39
ATOM     36  C   UNL     1      -8.734  -1.029  24.246  0.00  0.00    +0.000 A 
ATOM     37  C   UNL     1      -7.674  -0.709  23.387  0.00  0.00    +0.000 A 
ATOM     38  C   UNL     1      -7.168  -1.649  22.481  0.00  0.00    +0.000 A 
ATOM     39  C   UNL     1      -7.701  -2.939  22.423  0.00  0.00    +0.000 A 
ATOM     40  C   UNL     1      -8.751  -3.261  23.293  0.00  0.00    +0.000 A 
ATOM     41  C   UNL     1      -9.286  -2.318  24.183  0.00  0.00    +0.000 A 
ATOM     42  H   UNL     1      -7.192   0.263  23.421  0.00  0.00    +0.000 HD
ATOM     43  H   UNL     1      -6.338  -1.363  21.839  0.00  0.00    +0.000 HD
ATOM     44  H   UNL     1      -9.176  -4.263  23.293  0.00  0.00    +0.000 HD
BRANCH  36  45
ATOM     45  O   UNL     1      -9.207  -0.169  25.200  0.00  0.00    +0.000 OA
BRANCH  45  46
ATOM     46  C   UNL     1      -8.597   1.113  25.287  0.00  0.00    +0.000 C 
ATOM     47  H   UNL     1      -7.819   1.059  26.055  0.00  0.00    +0.000 HD
ATOM     48  H   UNL     1      -9.324   1.870  25.597  0.00  0.00    +0.000 HD
ATOM     49  H   UNL     1      -8.109   1.390  24.348  0.00  0.00    +0.000 HD
ENDBRANCH  45  46
ENDBRANCH  36  45
BRANCH  41  50
ATOM     50  O   UNL     1     -10.311  -2.821  24.944  0.00  0.00    +0.000 OA
BRANCH  50  51
ATOM     51  C   UNL     1     -11.596  -2.873  24.334  0.00  0.00    +0.000 C 
ATOM     52  H   UNL     1     -11.727  -3.881  23.926  0.00  0.00    +0.000 HD
ATOM     53  H   UNL     1     -11.684  -2.169  23.499  0.00  0.00    +0.000 HD
ATOM     54  H   UNL     1     -12.387  -2.722  25.074  0.00  0.00    +0.000 HD
ENDBRANCH  50  51
ENDBRANCH  41  50
ENDBRANCH  33  39
ENDBRANCH  30  33
ENDBRANCH   1  30
TORSDOF 10
ENDMDL
MODEL 9
REMARK VINA RESULT:    -8.982      1.272      2.254
REMARK INTER + INTRA:         -13.693
REMARK INTER:                 -13.344
REMARK INTRA:                  -0.349
REMARK UNBOUND:                -0.248
REMARK  Name = 
REMARK  10 active torsions:
REMARK  status: ('A' for Active; 'I' for Inactive)
REMARK    1  A    between atoms: C_1  and  O_2
REMARK    2  A    between atoms: O_2  and  C_3
REMARK    3  A    between atoms: C_6  and  C_7
REMARK    4  A    between atoms: C_7  and  C_8
REMARK    5  A    between atoms: C_8  and  N_9
REMARK    6  A    between atoms: N_9  and  C_10
REMARK    7  A    between atoms: N_15  and  C_16
REMARK    8  A    between atoms: C_21  and  N_22
REMARK    9  A    between atoms: C_24  and  O_25
REMARK   10  A    between atoms: O_25  and  C_26
REMARK                            x       y       z     vdW  Elec       q    Type
REMARK                         _______ _______ _______ _____ _____    ______ ____
ROOT
ATOM      1  N   UNL     1     -10.323  -7.252  16.435  0.00  0.00    +0.000 N 
ATOM      2  H   UNL     1     -10.575  -7.907  17.174  0.00  0.00    +0.000 HD
ENDROOT
BRANCH   1   3
ATOM      3  C   UNL     1     -10.072  -5.985  17.002  0.00  0.00    +0.000 A 
ATOM      4  N   UNL     1     -10.510  -4.882  16.373  0.00  0.00    +0.000 NA
ATOM      5  C   UNL     1     -10.244  -3.714  16.965  0.00  0.00    +0.000 A 
ATOM      6  N   UNL     1      -9.641  -3.577  18.137  0.00  0.00    +0.000 N 
ATOM      7  C   UNL     1      -9.228  -4.641  18.830  0.00  0.00    +0.000 A 
ATOM      8  N   UNL     1      -8.620  -4.480  20.065  0.00  0.00    +0.000 N 
ATOM      9  C   UNL     1      -9.417  -5.923  18.255  0.00  0.00    +0.000 A 
ATOM     10  H   UNL     1     -10.554  -2.809  16.447  0.00  0.00    +0.000 HD
ATOM     11  H   UNL     1      -9.487  -2.652  18.503  0.00  0.00    +0.000 HD
ATOM     12  H   UNL     1      -8.996  -5.114  20.770  0.00  0.00    +0.000 HD
BRANCH   8  13
ATOM     13  C   UNL     1      -8.081  -3.233  20.604  0.00  0.00    +0.000 C 
ATOM     14  C   UNL     1      -6.849  -3.546  21.456  0.00  0.00    +0.000 C 
ATOM     15  C   UNL     1      -6.814  -2.522  22.583  0.00  0.00    +0.000 C 
ATOM     16  C   UNL     1      -8.131  -1.761  22.535  0.00  0.00    +0.000 C 
ATOM     17  C   UNL     1      -9.029  -2.510  21.558  0.00  0.00    +0.000 C 
ATOM     18  H   UNL     1      -7.790  -2.565  19.785  0.00  0.00    +0.000 HD
ATOM     19  H   UNL     1      -5.937  -3.501  20.851  0.00  0.00    +0.000 HD
ATOM     20  H   UNL     1      -6.892  -4.555  21.885  0.00  0.00    +0.000 HD
ATOM     21  H   UNL     1      -5.967  -1.836  22.465  0.00  0.00    +0.000 HD
ATOM     22  H   UNL     1      -6.688  -3.024  23.549  0.00  0.00    +0.000 HD
ATOM     23  H   UNL     1      -7.953  -0.736  22.188  0.00  0.00    +0.000 HD
ATOM     24  H   UNL     1      -8.591  -1.689  23.527  0.00  0.00    +0.000 HD
ATOM     25  H   UNL     1      -9.671  -1.797  21.028  0.00  0.00    +0.000 HD
ATOM     26  H   UNL     1      -9.686  -3.203  22.094  0.00  0.00    +0.000 HD
ENDBRANCH   8  13
BRANCH   9  27
ATOM     27  N   UNL     1      -8.769  -7.068  18.777  0.00  0.00    +0.000 N 
ATOM     28  H   UNL     1      -9.311  -7.925  18.804  0.00  0.00    +0.000 HD
ATOM     29  H   UNL     1      -7.825  -7.201  18.418  0.00  0.00    +0.000 HD
ENDBRANCH   9  27
ENDBRANCH   1   3
BRANCH   1  30
ATOM     30  C   UNL     1      -9.225  -7.769  15.599  0.00  0.00    +0.000 C 
ATOM     31  H   UNL     1      -9.006  -7.063  14.786  0.00  0.00    +0.000 HD
ATOM     32  H   UNL     1      -8.321  -7.874  16.210  0.00  0.00    +0.000 HD
BRANCH  30  33
ATOM     33  C   UNL     1      -9.603  -9.120  14.979  0.00  0.00    +0.000 C 
ATOM     34  H   UNL     1     -10.684  -9.166  14.795  0.00  0.00    +0.000 HD
ATOM     35  H   UNL     1      -9.125  -9.209  13.995  0.00  0.00    +0.000 HD
BRANCH  33  39
ATOM     36  C   UNL     1      -8.429 -12.477  17.477  0.00  0.00    +0.000 A 
ATOM     37  C   UNL     1      -8.842 -11.264  18.045  0.00  0.00    +0.000 A 
ATOM     38  C   UNL     1      -9.236 -10.186  17.243  0.00  0.00    +0.000 A 
ATOM     39  C   UNL     1      -9.210 -10.290  15.851  0.00  0.00    +0.000 A 
ATOM     40  C   UNL     1      -8.783 -11.497  15.284  0.00  0.00    +0.000 A 
ATOM     41  C   UNL     1      -8.416 -12.594  16.078  0.00  0.00    +0.000 A 
ATOM     42  H   UNL     1      -8.837 -11.112  19.120  0.00  0.00    +0.000 HD
ATOM     43  H   UNL     1      -9.540  -9.259  17.725  0.00  0.00    +0.000 HD
ATOM     44  H   UNL     1      -8.729 -11.608  14.202  0.00  0.00    +0.000 HD
BRANCH  36  45
ATOM     45  O   UNL     1      -7.961 -13.527  18.218  0.00  0.00    +0.000 OA
BRANCH  45  46
ATOM     46  C   UNL     1      -8.923 -14.384  18.821  0.00  0.00    +0.000 C 
ATOM     47  H   UNL     1      -9.867 -14.256  18.281  0.00  0.00    +0.000 HD
ATOM     48  H   UNL     1      -9.094 -14.105  19.866  0.00  0.00    +0.000 HD
ATOM     49  H   UNL     1      -8.637 -15.436  18.731  0.00  0.00    +0.000 HD
ENDBRANCH  45  46
ENDBRANCH  36  45
BRANCH  41  50
ATOM     50  O   UNL     1      -8.035 -13.687  15.340  0.00  0.00    +0.000 OA
BRANCH  50  51
ATOM     51  C   UNL     1      -9.054 -14.625  15.011  0.00  0.00    +0.000 C 
ATOM     52  H   UNL     1      -9.197 -14.589  13.926  0.00  0.00    +0.000 HD
ATOM     53  H   UNL     1     -10.013 -14.370  15.474  0.00  0.00    +0.000 HD
ATOM     54  H   UNL     1      -8.743 -15.643  15.259  0.00  0.00    +0.000 HD
ENDBRANCH  50  51
ENDBRANCH  41  50
ENDBRANCH  33  39
ENDBRANCH  30  33
ENDBRANCH   1  30
TORSDOF 10
ENDMDL
