MODEL 1
REMARK VINA RESULT:    -8.988      0.000      0.000
REMARK INTER + INTRA:         -11.723
REMARK INTER:                 -11.616
REMARK INTRA:                  -0.107
REMARK UNBOUND:                -0.107
REMARK  Name = 
REMARK  6 active torsions:
REMARK  status: ('A' for Active; 'I' for Inactive)
REMARK    1  A    between atoms: C_1  and  C_2
REMARK    2  A    between atoms: C_6  and  C_8
REMARK    3  A    between atoms: C_8  and  S_9
REMARK    4  A    between atoms: S_9  and  C_10
REMARK    5  A    between atoms: C_13  and  C_14
REMARK    6  A    between atoms: N_19  and  N_20
REMARK                            x       y       z     vdW  Elec       q    Type
REMARK                         _______ _______ _______ _____ _____    ______ ____
ROOT
ATOM      1  C   UNL     1     -10.809  -0.118  21.769  0.00  0.00    +0.000 C 
ATOM      2  C   UNL     1     -10.547  -0.117  20.259  0.00  0.00    +0.000 C 
ATOM      3  C   UNL     1      -9.209  -0.742  19.868  0.00  0.00    +0.000 C 
ATOM      4  N   UNL     1      -9.161  -2.198  20.025  0.00  0.00    +0.000 N 
ATOM      5  C   UNL     1      -9.537  -3.024  18.959  0.00  0.00    +0.000 C 
ATOM      6  O   UNL     1      -9.866  -2.524  17.879  0.00  0.00    +0.000 OA
ATOM      7  C   UNL     1      -8.720  -2.661  21.288  0.00  0.00    +0.000 A 
ATOM      8  C   UNL     1      -7.432  -3.201  21.392  0.00  0.00    +0.000 A 
ATOM      9  C   UNL     1      -6.913  -3.540  22.642  0.00  0.00    +0.000 A 
ATOM     10  C   UNL     1      -7.678  -3.351  23.791  0.00  0.00    +0.000 A 
ATOM     11  C   UNL     1      -8.965  -2.820  23.693  0.00  0.00    +0.000 A 
ATOM     12  C   UNL     1      -9.489  -2.452  22.448  0.00  0.00    +0.000 A 
ATOM     13  S   UNL     1     -11.152  -1.799  22.409  0.00  0.00    +0.000 S 
ATOM     14  H   UNL     1      -9.942   0.291  22.303  0.00  0.00    +0.000 HD
ATOM     15  H   UNL     1     -10.525   0.926  19.916  0.00  0.00    +0.000 HD
ATOM     16  H   UNL     1     -11.370  -0.602  19.718  0.00  0.00    +0.000 HD
ATOM     17  H   UNL     1      -8.389  -0.289  20.442  0.00  0.00    +0.000 HD
ATOM     18  H   UNL     1      -9.006  -0.499  18.817  0.00  0.00    +0.000 HD
ATOM     19  H   UNL     1      -6.808  -3.317  20.510  0.00  0.00    +0.000 HD
ATOM     20  H   UNL     1      -5.904  -3.939  22.723  0.00  0.00    +0.000 HD
ATOM     21  H   UNL     1      -7.274  -3.613  24.766  0.00  0.00    +0.000 HD
ATOM     22  H   UNL     1      -9.552  -2.685  24.599  0.00  0.00    +0.000 HD
ENDROOT
BRANCH   1  23
ATOM     23  C   UNL     1     -12.017   0.759  22.102  0.00  0.00    +0.000 C 
ATOM     24  H   UNL     1     -12.263   1.406  21.252  0.00  0.00    +0.000 HD
ATOM     25  H   UNL     1     -11.814   1.414  22.956  0.00  0.00    +0.000 HD
ATOM     26  H   UNL     1     -12.907   0.160  22.328  0.00  0.00    +0.000 HD
ENDBRANCH   1  23
BRANCH   5  27
ATOM     27  C   UNL     1      -9.546  -4.545  19.198  0.00  0.00    +0.000 C 
ATOM     28  H   UNL     1     -10.206  -4.774  20.040  0.00  0.00    +0.000 HD
ATOM     29  H   UNL     1      -8.527  -4.880  19.409  0.00  0.00    +0.000 HD
BRANCH  27  30
ATOM     30  S   UNL     1     -10.149  -5.432  17.715  0.00  0.00    +0.000 S 
BRANCH  30  31
ATOM     31  C   UNL     1      -9.691  -7.070  18.033  0.00  0.00    +0.000 A 
ATOM     32  N   UNL     1      -9.183  -7.559  19.141  0.00  0.00    +0.000 NA
ATOM     33  N   UNL     1      -8.907  -8.896  18.917  0.00  0.00    +0.000 NA
ATOM     34  C   UNL     1      -9.215  -9.183  17.663  0.00  0.00    +0.000 A 
ATOM     35  N   UNL     1      -9.789  -8.066  17.085  0.00  0.00    +0.000 N 
BRANCH  34  36
ATOM     36  C   UNL     1      -8.951 -10.454  17.035  0.00  0.00    +0.000 A 
ATOM     37  C   UNL     1      -8.934 -10.720  15.677  0.00  0.00    +0.000 A 
ATOM     38  C   UNL     1      -8.680 -12.096  15.385  0.00  0.00    +0.000 A 
ATOM     39  C   UNL     1      -8.529 -12.844  16.526  0.00  0.00    +0.000 A 
ATOM     40  S   UNL     1      -8.695 -11.896  17.935  0.00  0.00    +0.000 S 
ATOM     41  H   UNL     1      -9.092  -9.960  14.922  0.00  0.00    +0.000 HD
ATOM     42  H   UNL     1      -8.622 -12.514  14.386  0.00  0.00    +0.000 HD
ATOM     43  H   UNL     1      -8.337 -13.908  16.605  0.00  0.00    +0.000 HD
ENDBRANCH  34  36
BRANCH  35  44
ATOM     44  N   UNL     1     -10.382  -7.955  15.770  0.00  0.00    +0.000 N 
ATOM     45  H   UNL     1     -11.286  -7.486  15.811  0.00  0.00    +0.000 HD
ATOM     46  H   UNL     1     -10.563  -8.881  15.384  0.00  0.00    +0.000 HD
ENDBRANCH  35  44
ENDBRANCH  30  31
ENDBRANCH  27  30
ENDBRANCH   5  27
TORSDOF 6
ENDMDL
MODEL 2
REMARK VINA RESULT:    -8.936      0.972      1.076
REMARK INTER + INTRA:         -11.655
REMARK INTER:                 -11.458
REMARK INTRA:                  -0.197
REMARK UNBOUND:                -0.107
REMARK  Name = 
REMARK  6 active torsions:
REMARK  status: ('A' for Active; 'I' for Inactive)
REMARK    1  A    between atoms: C_1  and  C_2
REMARK    2  A    between atoms: C_6  and  C_8
REMARK    3  A    between atoms: C_8  and  S_9
REMARK    4  A    between atoms: S_9  and  C_10
REMARK    5  A    between atoms: C_13  and  C_14
REMARK    6  A    between atoms: N_19  and  N_20
REMARK                            x       y       z     vdW  Elec       q    Type
REMARK                         _______ _______ _______ _____ _____    ______ ____
ROOT
ATOM      1  C   UNL     1     -11.588   0.058  21.622  0.00  0.00    +0.000 C 
ATOM      2  C   UNL     1     -11.180   0.150  20.147  0.00  0.00    +0.000 C 
ATOM      3  C   UNL     1      -9.727  -0.244  19.887  0.00  0.00    +0.000 C 
ATOM      4  N   UNL     1      -9.463  -1.679  20.024  0.00  0.00    +0.000 N 
ATOM      5  C   UNL     1      -9.594  -2.517  18.910  0.00  0.00    +0.000 C 
ATOM      6  O   UNL     1      -9.888  -2.038  17.810  0.00  0.00    +0.000 OA
ATOM      7  C   UNL     1      -9.083  -2.109  21.318  0.00  0.00    +0.000 A 
ATOM      8  C   UNL     1      -7.743  -2.443  21.547  0.00  0.00    +0.000 A 
ATOM      9  C   UNL     1      -7.304  -2.738  22.838  0.00  0.00    +0.000 A 
ATOM     10  C   UNL     1      -8.201  -2.710  23.903  0.00  0.00    +0.000 A 
ATOM     11  C   UNL     1      -9.540  -2.384  23.681  0.00  0.00    +0.000 A 
ATOM     12  C   UNL     1      -9.988  -2.061  22.394  0.00  0.00    +0.000 A 
ATOM     13  S   UNL     1     -11.721  -1.676  22.193  0.00  0.00    +0.000 S 
ATOM     14  H   UNL     1     -10.856   0.579  22.249  0.00  0.00    +0.000 HD
ATOM     15  H   UNL     1     -11.290   1.195  19.826  0.00  0.00    +0.000 HD
ATOM     16  H   UNL     1     -11.856  -0.439  19.515  0.00  0.00    +0.000 HD
ATOM     17  H   UNL     1      -9.052   0.313  20.552  0.00  0.00    +0.000 HD
ATOM     18  H   UNL     1      -9.460   0.064  18.868  0.00  0.00    +0.000 HD
ATOM     19  H   UNL     1      -7.023  -2.431  20.732  0.00  0.00    +0.000 HD
ATOM     20  H   UNL     1      -6.258  -2.976  23.017  0.00  0.00    +0.000 HD
ATOM     21  H   UNL     1      -7.860  -2.938  24.911  0.00  0.00    +0.000 HD
ATOM     22  H   UNL     1     -10.229  -2.374  24.523  0.00  0.00    +0.000 HD
ENDROOT
BRANCH   1  23
ATOM     23  C   UNL     1     -12.948   0.723  21.841  0.00  0.00    +0.000 C 
ATOM     24  H   UNL     1     -12.854   1.559  22.544  0.00  0.00    +0.000 HD
ATOM     25  H   UNL     1     -13.672   0.022  22.271  0.00  0.00    +0.000 HD
ATOM     26  H   UNL     1     -13.364   1.122  20.909  0.00  0.00    +0.000 HD
ENDBRANCH   1  23
BRANCH   5  27
ATOM     27  C   UNL     1      -9.384  -4.027  19.120  0.00  0.00    +0.000 C 
ATOM     28  H   UNL     1      -9.522  -4.267  20.179  0.00  0.00    +0.000 HD
ATOM     29  H   UNL     1      -8.376  -4.298  18.795  0.00  0.00    +0.000 HD
BRANCH  27  30
ATOM     30  S   UNL     1     -10.586  -4.994  18.135  0.00  0.00    +0.000 S 
BRANCH  30  31
ATOM     31  C   UNL     1      -9.954  -6.602  18.225  0.00  0.00    +0.000 A 
ATOM     32  N   UNL     1      -9.153  -7.098  19.140  0.00  0.00    +0.000 NA
ATOM     33  N   UNL     1      -8.853  -8.397  18.770  0.00  0.00    +0.000 NA
ATOM     34  C   UNL     1      -9.446  -8.651  17.616  0.00  0.00    +0.000 A 
ATOM     35  N   UNL     1     -10.220  -7.559  17.270  0.00  0.00    +0.000 N 
BRANCH  34  36
ATOM     36  C   UNL     1      -9.264  -9.868  16.863  0.00  0.00    +0.000 A 
ATOM     37  C   UNL     1      -9.097 -11.142  17.375  0.00  0.00    +0.000 A 
ATOM     38  C   UNL     1      -8.898 -12.127  16.357  0.00  0.00    +0.000 A 
ATOM     39  C   UNL     1      -8.902 -11.574  15.100  0.00  0.00    +0.000 A 
ATOM     40  S   UNL     1      -9.138  -9.885  15.149  0.00  0.00    +0.000 S 
ATOM     41  H   UNL     1      -9.119 -11.364  18.434  0.00  0.00    +0.000 HD
ATOM     42  H   UNL     1      -8.751 -13.185  16.543  0.00  0.00    +0.000 HD
ATOM     43  H   UNL     1      -8.767 -12.078  14.150  0.00  0.00    +0.000 HD
ENDBRANCH  34  36
BRANCH  35  44
ATOM     44  N   UNL     1     -11.130  -7.438  16.151  0.00  0.00    +0.000 N 
ATOM     45  H   UNL     1     -12.040  -7.841  16.371  0.00  0.00    +0.000 HD
ATOM     46  H   UNL     1     -10.778  -7.960  15.350  0.00  0.00    +0.000 HD
ENDBRANCH  35  44
ENDBRANCH  30  31
ENDBRANCH  27  30
ENDBRANCH   5  27
TORSDOF 6
ENDMDL
MODEL 3
REMARK VINA RESULT:    -8.826      2.451      7.843
REMARK INTER + INTRA:         -11.513
REMARK INTER:                 -10.548
REMARK INTRA:                  -0.965
REMARK UNBOUND:                -0.107
REMARK  Name = 
REMARK  6 active torsions:
REMARK  status: ('A' for Active; 'I' for Inactive)
REMARK    1  A    between atoms: C_1  and  C_2
REMARK    2  A    between atoms: C_6  and  C_8
REMARK    3  A    between atoms: C_8  and  S_9
REMARK    4  A    between atoms: S_9  and  C_10
REMARK    5  A    between atoms: C_13  and  C_14
REMARK    6  A    between atoms: N_19  and  N_20
REMARK                            x       y       z     vdW  Elec       q    Type
REMARK                         _______ _______ _______ _____ _____    ______ ____
ROOT
ATOM      1  C   UNL     1      -9.523  -8.503  17.013  0.00  0.00    +0.000 C 
ATOM      2  C   UNL     1     -10.937  -7.920  17.115  0.00  0.00    +0.000 C 
ATOM      3  C   UNL     1     -11.097  -6.893  18.234  0.00  0.00    +0.000 C 
ATOM      4  N   UNL     1     -10.429  -5.615  17.974  0.00  0.00    +0.000 N 
ATOM      5  C   UNL     1     -11.123  -4.591  17.319  0.00  0.00    +0.000 C 
ATOM      6  O   UNL     1     -12.305  -4.752  17.001  0.00  0.00    +0.000 OA
ATOM      7  C   UNL     1      -9.091  -5.524  18.426  0.00  0.00    +0.000 A 
ATOM      8  C   UNL     1      -8.819  -4.757  19.566  0.00  0.00    +0.000 A 
ATOM      9  C   UNL     1      -7.539  -4.754  20.120  0.00  0.00    +0.000 A 
ATOM     10  C   UNL     1      -6.523  -5.507  19.535  0.00  0.00    +0.000 A 
ATOM     11  C   UNL     1      -6.786  -6.268  18.396  0.00  0.00    +0.000 A 
ATOM     12  C   UNL     1      -8.073  -6.300  17.843  0.00  0.00    +0.000 A 
ATOM     13  S   UNL     1      -8.318  -7.283  16.372  0.00  0.00    +0.000 S 
ATOM     14  H   UNL     1      -9.185  -8.847  17.997  0.00  0.00    +0.000 HD
ATOM     15  H   UNL     1     -11.632  -8.743  17.333  0.00  0.00    +0.000 HD
ATOM     16  H   UNL     1     -11.255  -7.494  16.155  0.00  0.00    +0.000 HD
ATOM     17  H   UNL     1     -10.736  -7.302  19.187  0.00  0.00    +0.000 HD
ATOM     18  H   UNL     1     -12.169  -6.702  18.379  0.00  0.00    +0.000 HD
ATOM     19  H   UNL     1      -9.610  -4.196  20.056  0.00  0.00    +0.000 HD
ATOM     20  H   UNL     1      -7.335  -4.175  21.019  0.00  0.00    +0.000 HD
ATOM     21  H   UNL     1      -5.525  -5.507  19.968  0.00  0.00    +0.000 HD
ATOM     22  H   UNL     1      -5.979  -6.845  17.947  0.00  0.00    +0.000 HD
ENDROOT
BRANCH   1  23
ATOM     23  C   UNL     1      -9.509  -9.707  16.069  0.00  0.00    +0.000 C 
ATOM     24  H   UNL     1      -8.917 -10.522  16.500  0.00  0.00    +0.000 HD
ATOM     25  H   UNL     1      -9.054  -9.455  15.104  0.00  0.00    +0.000 HD
ATOM     26  H   UNL     1     -10.518 -10.094  15.885  0.00  0.00    +0.000 HD
ENDBRANCH   1  23
BRANCH   5  27
ATOM     27  C   UNL     1     -10.354  -3.297  16.996  0.00  0.00    +0.000 C 
ATOM     28  H   UNL     1     -10.221  -3.216  15.913  0.00  0.00    +0.000 HD
ATOM     29  H   UNL     1      -9.384  -3.321  17.500  0.00  0.00    +0.000 HD
BRANCH  27  30
ATOM     30  S   UNL     1     -11.273  -1.830  17.589  0.00  0.00    +0.000 S 
BRANCH  30  31
ATOM     31  C   UNL     1     -10.536  -1.505  19.120  0.00  0.00    +0.000 A 
ATOM     32  N   UNL     1      -9.490  -0.749  19.362  0.00  0.00    +0.000 NA
ATOM     33  N   UNL     1      -9.214  -0.840  20.715  0.00  0.00    +0.000 NA
ATOM     34  C   UNL     1     -10.074  -1.683  21.262  0.00  0.00    +0.000 A 
ATOM     35  N   UNL     1     -10.983  -2.073  20.295  0.00  0.00    +0.000 N 
BRANCH  34  36
ATOM     36  C   UNL     1     -10.019  -2.118  22.635  0.00  0.00    +0.000 A 
ATOM     37  C   UNL     1     -11.038  -2.050  23.568  0.00  0.00    +0.000 A 
ATOM     38  C   UNL     1     -10.644  -2.528  24.857  0.00  0.00    +0.000 A 
ATOM     39  C   UNL     1      -9.332  -2.933  24.875  0.00  0.00    +0.000 A 
ATOM     40  S   UNL     1      -8.583  -2.732  23.355  0.00  0.00    +0.000 S 
ATOM     41  H   UNL     1     -12.028  -1.676  23.339  0.00  0.00    +0.000 HD
ATOM     42  H   UNL     1     -11.291  -2.565  25.726  0.00  0.00    +0.000 HD
ATOM     43  H   UNL     1      -8.769  -3.330  25.711  0.00  0.00    +0.000 HD
ENDBRANCH  34  36
BRANCH  35  44
ATOM     44  N   UNL     1     -12.162  -2.891  20.468  0.00  0.00    +0.000 N 
ATOM     45  H   UNL     1     -12.346  -3.454  19.638  0.00  0.00    +0.000 HD
ATOM     46  H   UNL     1     -12.986  -2.305  20.597  0.00  0.00    +0.000 HD
ENDBRANCH  35  44
ENDBRANCH  30  31
ENDBRANCH  27  30
ENDBRANCH   5  27
TORSDOF 6
ENDMDL
MODEL 4
REMARK VINA RESULT:    -8.481      4.760      6.709
REMARK INTER + INTRA:         -11.067
REMARK INTER:                 -10.619
REMARK INTRA:                  -0.448
REMARK UNBOUND:                -0.107
REMARK  Name = 
REMARK  6 active torsions:
REMARK  status: ('A' for Active; 'I' for Inactive)
REMARK    1  A    between atoms: C_1  and  C_2
REMARK    2  A    between atoms: C_6  and  C_8
REMARK    3  A    between atoms: C_8  and  S_9
REMARK    4  A    between atoms: S_9  and  C_10
REMARK    5  A    between atoms: C_13  and  C_14
REMARK    6  A    between atoms: N_19  and  N_20
REMARK                            x       y       z     vdW  Elec       q    Type
REMARK                         _______ _______ _______ _____ _____    ______ ____
ROOT
ATOM      1  C   UNL     1      -9.189   0.241  13.316  0.00  0.00    +0.000 C 
ATOM      2  C   UNL     1      -9.680   0.034  14.754  0.00  0.00    +0.000 C 
ATOM      3  C   UNL     1     -11.010  -0.712  14.846  0.00  0.00    +0.000 C 
ATOM      4  N   UNL     1     -10.920  -2.137  14.514  0.00  0.00    +0.000 N 
ATOM      5  C   UNL     1     -10.651  -3.069  15.523  0.00  0.00    +0.000 C 
ATOM      6  O   UNL     1     -10.531  -2.692  16.694  0.00  0.00    +0.000 OA
ATOM      7  C   UNL     1     -11.124  -2.459  13.151  0.00  0.00    +0.000 A 
ATOM      8  C   UNL     1     -12.335  -3.055  12.777  0.00  0.00    +0.000 A 
ATOM      9  C   UNL     1     -12.628  -3.261  11.428  0.00  0.00    +0.000 A 
ATOM     10  C   UNL     1     -11.712  -2.882  10.449  0.00  0.00    +0.000 A 
ATOM     11  C   UNL     1     -10.501  -2.294  10.816  0.00  0.00    +0.000 A 
ATOM     12  C   UNL     1     -10.205  -2.059  12.165  0.00  0.00    +0.000 A 
ATOM     13  S   UNL     1      -8.623  -1.321  12.549  0.00  0.00    +0.000 S 
ATOM     14  H   UNL     1      -9.992   0.664  12.701  0.00  0.00    +0.000 HD
ATOM     15  H   UNL     1      -9.835   1.022  15.208  0.00  0.00    +0.000 HD
ATOM     16  H   UNL     1      -8.915  -0.468  15.360  0.00  0.00    +0.000 HD
ATOM     17  H   UNL     1     -11.764  -0.238  14.204  0.00  0.00    +0.000 HD
ATOM     18  H   UNL     1     -11.391  -0.617  15.871  0.00  0.00    +0.000 HD
ATOM     19  H   UNL     1     -13.077  -3.319  13.526  0.00  0.00    +0.000 HD
ATOM     20  H   UNL     1     -13.579  -3.703  11.138  0.00  0.00    +0.000 HD
ATOM     21  H   UNL     1     -11.940  -3.041   9.397  0.00  0.00    +0.000 HD
ATOM     22  H   UNL     1      -9.793  -2.012  10.039  0.00  0.00    +0.000 HD
ENDROOT
BRANCH   1  23
ATOM     23  C   UNL     1      -8.016   1.222  13.289  0.00  0.00    +0.000 C 
ATOM     24  H   UNL     1      -7.177   0.827  13.875  0.00  0.00    +0.000 HD
ATOM     25  H   UNL     1      -8.290   2.187  13.730  0.00  0.00    +0.000 HD
ATOM     26  H   UNL     1      -7.653   1.397  12.270  0.00  0.00    +0.000 HD
ENDBRANCH   1  23
BRANCH   5  27
ATOM     27  C   UNL     1     -10.487  -4.543  15.113  0.00  0.00    +0.000 C 
ATOM     28  H   UNL     1      -9.431  -4.821  15.178  0.00  0.00    +0.000 HD
ATOM     29  H   UNL     1     -10.854  -4.673  14.091  0.00  0.00    +0.000 HD
BRANCH  27  30
ATOM     30  S   UNL     1     -11.455  -5.637  16.216  0.00  0.00    +0.000 S 
BRANCH  30  31
ATOM     31  C   UNL     1     -10.306  -6.852  16.659  0.00  0.00    +0.000 A 
ATOM     32  N   UNL     1      -9.145  -6.681  17.248  0.00  0.00    +0.000 NA
ATOM     33  N   UNL     1      -8.539  -7.921  17.340  0.00  0.00    +0.000 NA
ATOM     34  C   UNL     1      -9.327  -8.816  16.768  0.00  0.00    +0.000 A 
ATOM     35  N   UNL     1     -10.499  -8.190  16.387  0.00  0.00    +0.000 N 
BRANCH  34  36
ATOM     36  C   UNL     1      -8.969 -10.199  16.569  0.00  0.00    +0.000 A 
ATOM     37  C   UNL     1      -8.771 -10.837  15.357  0.00  0.00    +0.000 A 
ATOM     38  C   UNL     1      -8.468 -12.227  15.506  0.00  0.00    +0.000 A 
ATOM     39  C   UNL     1      -8.460 -12.612  16.823  0.00  0.00    +0.000 A 
ATOM     40  S   UNL     1      -8.819 -11.313  17.869  0.00  0.00    +0.000 S 
ATOM     41  H   UNL     1      -8.837 -10.331  14.402  0.00  0.00    +0.000 HD
ATOM     42  H   UNL     1      -8.274 -12.907  14.684  0.00  0.00    +0.000 HD
ATOM     43  H   UNL     1      -8.269 -13.600  17.227  0.00  0.00    +0.000 HD
ENDBRANCH  34  36
BRANCH  35  44
ATOM     44  N   UNL     1     -11.687  -8.799  15.832  0.00  0.00    +0.000 N 
ATOM     45  H   UNL     1     -12.415  -8.900  16.539  0.00  0.00    +0.000 HD
ATOM     46  H   UNL     1     -11.482  -9.742  15.503  0.00  0.00    +0.000 HD
ENDBRANCH  35  44
ENDBRANCH  30  31
ENDBRANCH  27  30
ENDBRANCH   5  27
TORSDOF 6
ENDMDL
MODEL 5
REMARK VINA RESULT:    -8.324      3.570      5.141
REMARK INTER + INTRA:         -10.863
REMARK INTER:                 -10.512
REMARK INTRA:                  -0.351
REMARK UNBOUND:                -0.107
REMARK  Name = 
REMARK  6 active torsions:
REMARK  status: ('A' for Active; 'I' for Inactive)
REMARK    1  A    between atoms: C_1  and  C_2
REMARK    2  A    between atoms: C_6  and  C_8
REMARK    3  A    between atoms: C_8  and  S_9
REMARK    4  A    between atoms: S_9  and  C_10
REMARK    5  A    between atoms: C_13  and  C_14
REMARK    6  A    between atoms: N_19  and  N_20
REMARK                            x       y       z     vdW  Elec       q    Type
REMARK                         _______ _______ _______ _____ _____    ______ ____
ROOT
ATOM      1  C   UNL     1     -10.086   0.583  16.121  0.00  0.00    +0.000 C 
ATOM      2  C   UNL     1     -10.862   0.042  17.327  0.00  0.00    +0.000 C 
ATOM      3  C   UNL     1     -11.843  -1.074  16.975  0.00  0.00    +0.000 C 
ATOM      4  N   UNL     1     -11.203  -2.346  16.629  0.00  0.00    +0.000 N 
ATOM      5  C   UNL     1     -10.935  -3.284  17.633  0.00  0.00    +0.000 C 
ATOM      6  O   UNL     1     -11.278  -3.054  18.798  0.00  0.00    +0.000 OA
ATOM      7  C   UNL     1     -10.900  -2.524  15.257  0.00  0.00    +0.000 A 
ATOM      8  C   UNL     1     -11.694  -3.398  14.504  0.00  0.00    +0.000 A 
ATOM      9  C   UNL     1     -11.514  -3.495  13.123  0.00  0.00    +0.000 A 
ATOM     10  C   UNL     1     -10.538  -2.728  12.491  0.00  0.00    +0.000 A 
ATOM     11  C   UNL     1      -9.740  -1.859  13.238  0.00  0.00    +0.000 A 
ATOM     12  C   UNL     1      -9.926  -1.734  14.620  0.00  0.00    +0.000 A 
ATOM     13  S   UNL     1      -8.848  -0.616  15.503  0.00  0.00    +0.000 S 
ATOM     14  H   UNL     1     -10.777   0.826  15.305  0.00  0.00    +0.000 HD
ATOM     15  H   UNL     1     -11.453   0.866  17.751  0.00  0.00    +0.000 HD
ATOM     16  H   UNL     1     -10.176  -0.285  18.119  0.00  0.00    +0.000 HD
ATOM     17  H   UNL     1     -12.500  -0.764  16.150  0.00  0.00    +0.000 HD
ATOM     18  H   UNL     1     -12.504  -1.240  17.835  0.00  0.00    +0.000 HD
ATOM     19  H   UNL     1     -12.486  -3.973  14.977  0.00  0.00    +0.000 HD
ATOM     20  H   UNL     1     -12.146  -4.158  12.537  0.00  0.00    +0.000 HD
ATOM     21  H   UNL     1     -10.398  -2.801  11.415  0.00  0.00    +0.000 HD
ATOM     22  H   UNL     1      -8.977  -1.273  12.729  0.00  0.00    +0.000 HD
ENDROOT
BRANCH   1  23
ATOM     23  C   UNL     1      -9.340   1.865  16.497  0.00  0.00    +0.000 C 
ATOM     24  H   UNL     1      -9.990   2.524  17.083  0.00  0.00    +0.000 HD
ATOM     25  H   UNL     1      -9.032   2.425  15.607  0.00  0.00    +0.000 HD
ATOM     26  H   UNL     1      -8.450   1.657  17.101  0.00  0.00    +0.000 HD
ENDBRANCH   1  23
BRANCH   5  27
ATOM     27  C   UNL     1     -10.190  -4.570  17.234  0.00  0.00    +0.000 C 
ATOM     28  H   UNL     1      -9.443  -4.806  17.998  0.00  0.00    +0.000 HD
ATOM     29  H   UNL     1      -9.709  -4.418  16.264  0.00  0.00    +0.000 HD
BRANCH  27  30
ATOM     30  S   UNL     1     -11.351  -5.976  17.088  0.00  0.00    +0.000 S 
BRANCH  30  31
ATOM     31  C   UNL     1     -10.349  -7.342  17.439  0.00  0.00    +0.000 A 
ATOM     32  N   UNL     1      -9.387  -7.423  18.329  0.00  0.00    +0.000 NA
ATOM     33  N   UNL     1      -8.815  -8.677  18.210  0.00  0.00    +0.000 NA
ATOM     34  C   UNL     1      -9.415  -9.319  17.222  0.00  0.00    +0.000 A 
ATOM     35  N   UNL     1     -10.450  -8.533  16.752  0.00  0.00    +0.000 N 
BRANCH  34  36
ATOM     36  C   UNL     1      -9.004 -10.611  16.729  0.00  0.00    +0.000 A 
ATOM     37  C   UNL     1      -8.790 -10.965  15.409  0.00  0.00    +0.000 A 
ATOM     38  C   UNL     1      -8.430 -12.340  15.254  0.00  0.00    +0.000 A 
ATOM     39  C   UNL     1      -8.397 -13.000  16.458  0.00  0.00    +0.000 A 
ATOM     40  S   UNL     1      -8.800 -11.973  17.759  0.00  0.00    +0.000 S 
ATOM     41  H   UNL     1      -8.882 -10.268  14.585  0.00  0.00    +0.000 HD
ATOM     42  H   UNL     1      -8.216 -12.819  14.306  0.00  0.00    +0.000 HD
ATOM     43  H   UNL     1      -8.164 -14.043  16.639  0.00  0.00    +0.000 HD
ENDBRANCH  34  36
BRANCH  35  44
ATOM     44  N   UNL     1     -11.444  -8.880  15.759  0.00  0.00    +0.000 N 
ATOM     45  H   UNL     1     -11.851  -9.795  15.948  0.00  0.00    +0.000 HD
ATOM     46  H   UNL     1     -11.015  -8.948  14.837  0.00  0.00    +0.000 HD
ENDBRANCH  35  44
ENDBRANCH  30  31
ENDBRANCH  27  30
ENDBRANCH   5  27
TORSDOF 6
ENDMDL
MODEL 6
REMARK VINA RESULT:    -8.178      4.455      6.280
REMARK INTER + INTRA:         -10.675
REMARK INTER:                 -10.183
REMARK INTRA:                  -0.492
REMARK UNBOUND:                -0.107
REMARK  Name = 
REMARK  6 active torsions:
REMARK  status: ('A' for Active; 'I' for Inactive)
REMARK    1  A    between atoms: C_1  and  C_2
REMARK    2  A    between atoms: C_6  and  C_8
REMARK    3  A    between atoms: C_8  and  S_9
REMARK    4  A    between atoms: S_9  and  C_10
REMARK    5  A    between atoms: C_13  and  C_14
REMARK    6  A    between atoms: N_19  and  N_20
REMARK                            x       y       z     vdW  Elec       q    Type
REMARK                         _______ _______ _______ _____ _____    ______ ____
ROOT
ATOM      1  C   UNL     1     -10.230  -1.136  11.800  0.00  0.00    +0.000 C 
ATOM      2  C   UNL     1      -9.176  -2.125  12.311  0.00  0.00    +0.000 C 
ATOM      3  C   UNL     1      -9.157  -2.269  13.832  0.00  0.00    +0.000 C 
ATOM      4  N   UNL     1     -10.311  -2.988  14.378  0.00  0.00    +0.000 N 
ATOM      5  C   UNL     1     -10.255  -4.379  14.528  0.00  0.00    +0.000 C 
ATOM      6  O   UNL     1      -9.220  -4.988  14.240  0.00  0.00    +0.000 OA
ATOM      7  C   UNL     1     -11.424  -2.183  14.722  0.00  0.00    +0.000 A 
ATOM      8  C   UNL     1     -11.683  -1.940  16.077  0.00  0.00    +0.000 A 
ATOM      9  C   UNL     1     -12.685  -1.043  16.449  0.00  0.00    +0.000 A 
ATOM     10  C   UNL     1     -13.437  -0.393  15.474  0.00  0.00    +0.000 A 
ATOM     11  C   UNL     1     -13.188  -0.636  14.122  0.00  0.00    +0.000 A 
ATOM     12  C   UNL     1     -12.170  -1.514  13.734  0.00  0.00    +0.000 A 
ATOM     13  S   UNL     1     -11.931  -1.784  11.984  0.00  0.00    +0.000 S 
ATOM     14  H   UNL     1     -10.154  -0.188  12.347  0.00  0.00    +0.000 HD
ATOM     15  H   UNL     1      -8.185  -1.754  12.013  0.00  0.00    +0.000 HD
ATOM     16  H   UNL     1      -9.295  -3.106  11.834  0.00  0.00    +0.000 HD
ATOM     17  H   UNL     1      -9.085  -1.284  14.312  0.00  0.00    +0.000 HD
ATOM     18  H   UNL     1      -8.245  -2.808  14.119  0.00  0.00    +0.000 HD
ATOM     19  H   UNL     1     -11.079  -2.410  16.848  0.00  0.00    +0.000 HD
ATOM     20  H   UNL     1     -12.870  -0.839  17.502  0.00  0.00    +0.000 HD
ATOM     21  H   UNL     1     -14.218   0.308  15.763  0.00  0.00    +0.000 HD
ATOM     22  H   UNL     1     -13.791  -0.125  13.374  0.00  0.00    +0.000 HD
ENDROOT
BRANCH   1  23
ATOM     23  C   UNL     1     -10.006  -0.838  10.316  0.00  0.00    +0.000 C 
ATOM     24  H   UNL     1      -9.389  -1.621   9.860  0.00  0.00    +0.000 HD
ATOM     25  H   UNL     1      -9.477   0.112  10.174  0.00  0.00    +0.000 HD
ATOM     26  H   UNL     1     -10.949  -0.795   9.761  0.00  0.00    +0.000 HD
ENDBRANCH   1  23
BRANCH   5  27
ATOM     27  C   UNL     1     -11.520  -5.098  15.031  0.00  0.00    +0.000 C 
ATOM     28  H   UNL     1     -11.600  -6.072  14.540  0.00  0.00    +0.000 HD
ATOM     29  H   UNL     1     -12.395  -4.483  14.804  0.00  0.00    +0.000 HD
BRANCH  27  30
ATOM     30  S   UNL     1     -11.448  -5.351  16.842  0.00  0.00    +0.000 S 
BRANCH  30  31
ATOM     31  C   UNL     1     -10.266  -6.603  17.009  0.00  0.00    +0.000 A 
ATOM     32  N   UNL     1      -9.031  -6.486  17.440  0.00  0.00    +0.000 NA
ATOM     33  N   UNL     1      -8.435  -7.731  17.336  0.00  0.00    +0.000 NA
ATOM     34  C   UNL     1      -9.309  -8.571  16.807  0.00  0.00    +0.000 A 
ATOM     35  N   UNL     1     -10.514  -7.911  16.653  0.00  0.00    +0.000 N 
BRANCH  34  36
ATOM     36  C   UNL     1      -9.003  -9.932  16.439  0.00  0.00    +0.000 A 
ATOM     37  C   UNL     1      -8.896 -10.439  15.157  0.00  0.00    +0.000 A 
ATOM     38  C   UNL     1      -8.624 -11.843  15.137  0.00  0.00    +0.000 A 
ATOM     39  C   UNL     1      -8.547 -12.368  16.403  0.00  0.00    +0.000 A 
ATOM     40  S   UNL     1      -8.806 -11.183  17.602  0.00  0.00    +0.000 S 
ATOM     41  H   UNL     1      -9.005  -9.832  14.267  0.00  0.00    +0.000 HD
ATOM     42  H   UNL     1      -8.499 -12.434  14.237  0.00  0.00    +0.000 HD
ATOM     43  H   UNL     1      -8.360 -13.398  16.687  0.00  0.00    +0.000 HD
ENDBRANCH  34  36
BRANCH  35  44
ATOM     44  N   UNL     1     -11.778  -8.468  16.221  0.00  0.00    +0.000 N 
ATOM     45  H   UNL     1     -11.989  -9.333  16.718  0.00  0.00    +0.000 HD
ATOM     46  H   UNL     1     -11.739  -8.713  15.233  0.00  0.00    +0.000 HD
ENDBRANCH  35  44
ENDBRANCH  30  31
ENDBRANCH  27  30
ENDBRANCH   5  27
TORSDOF 6
ENDMDL
MODEL 7
REMARK VINA RESULT:    -8.128      2.308      3.675
REMARK INTER + INTRA:         -10.611
REMARK INTER:                 -10.252
REMARK INTRA:                  -0.359
REMARK UNBOUND:                -0.107
REMARK  Name = 
REMARK  6 active torsions:
REMARK  status: ('A' for Active; 'I' for Inactive)
REMARK    1  A    between atoms: C_1  and  C_2
REMARK    2  A    between atoms: C_6  and  C_8
REMARK    3  A    between atoms: C_8  and  S_9
REMARK    4  A    between atoms: S_9  and  C_10
REMARK    5  A    between atoms: C_13  and  C_14
REMARK    6  A    between atoms: N_19  and  N_20
REMARK                            x       y       z     vdW  Elec       q    Type
REMARK                         _______ _______ _______ _____ _____    ______ ____
ROOT
ATOM      1  C   UNL     1     -10.677   0.665  20.179  0.00  0.00    +0.000 C 
ATOM      2  C   UNL     1     -10.195  -0.209  21.343  0.00  0.00    +0.000 C 
ATOM      3  C   UNL     1     -10.706  -1.647  21.283  0.00  0.00    +0.000 C 
ATOM      4  N   UNL     1     -10.093  -2.456  20.226  0.00  0.00    +0.000 N 
ATOM      5  C   UNL     1      -8.926  -3.181  20.497  0.00  0.00    +0.000 C 
ATOM      6  O   UNL     1      -8.444  -3.170  21.634  0.00  0.00    +0.000 OA
ATOM      7  C   UNL     1     -10.758  -2.434  18.977  0.00  0.00    +0.000 A 
ATOM      8  C   UNL     1     -11.497  -3.560  18.592  0.00  0.00    +0.000 A 
ATOM      9  C   UNL     1     -12.277  -3.525  17.435  0.00  0.00    +0.000 A 
ATOM     10  C   UNL     1     -12.315  -2.372  16.654  0.00  0.00    +0.000 A 
ATOM     11  C   UNL     1     -11.577  -1.249  17.030  0.00  0.00    +0.000 A 
ATOM     12  C   UNL     1     -10.810  -1.262  18.201  0.00  0.00    +0.000 A 
ATOM     13  S   UNL     1      -9.878   0.210  18.597  0.00  0.00    +0.000 S 
ATOM     14  H   UNL     1     -11.764   0.573  20.064  0.00  0.00    +0.000 HD
ATOM     15  H   UNL     1     -10.574   0.227  22.278  0.00  0.00    +0.000 HD
ATOM     16  H   UNL     1      -9.100  -0.193  21.417  0.00  0.00    +0.000 HD
ATOM     17  H   UNL     1     -11.798  -1.663  21.162  0.00  0.00    +0.000 HD
ATOM     18  H   UNL     1     -10.507  -2.127  22.249  0.00  0.00    +0.000 HD
ATOM     19  H   UNL     1     -11.508  -4.453  19.211  0.00  0.00    +0.000 HD
ATOM     20  H   UNL     1     -12.867  -4.393  17.149  0.00  0.00    +0.000 HD
ATOM     21  H   UNL     1     -12.924  -2.343  15.753  0.00  0.00    +0.000 HD
ATOM     22  H   UNL     1     -11.612  -0.359  16.404  0.00  0.00    +0.000 HD
ENDROOT
BRANCH   1  23
ATOM     23  C   UNL     1     -10.360   2.137  20.451  0.00  0.00    +0.000 C 
ATOM     24  H   UNL     1     -10.773   2.443  21.420  0.00  0.00    +0.000 HD
ATOM     25  H   UNL     1     -10.806   2.790  19.692  0.00  0.00    +0.000 HD
ATOM     26  H   UNL     1      -9.281   2.325  20.479  0.00  0.00    +0.000 HD
ENDBRANCH   1  23
BRANCH   5  27
ATOM     27  C   UNL     1      -8.274  -3.951  19.335  0.00  0.00    +0.000 C 
ATOM     28  H   UNL     1      -7.641  -3.269  18.760  0.00  0.00    +0.000 HD
ATOM     29  H   UNL     1      -9.059  -4.371  18.699  0.00  0.00    +0.000 HD
BRANCH  27  30
ATOM     30  S   UNL     1      -7.245  -5.328  19.963  0.00  0.00    +0.000 S 
BRANCH  30  31
ATOM     31  C   UNL     1      -8.159  -6.727  19.519  0.00  0.00    +0.000 A 
ATOM     32  N   UNL     1      -8.834  -7.529  20.311  0.00  0.00    +0.000 NA
ATOM     33  N   UNL     1      -9.346  -8.550  19.531  0.00  0.00    +0.000 NA
ATOM     34  C   UNL     1      -8.938  -8.371  18.286  0.00  0.00    +0.000 A 
ATOM     35  N   UNL     1      -8.241  -7.179  18.219  0.00  0.00    +0.000 N 
BRANCH  34  36
ATOM     36  C   UNL     1      -9.177  -9.306  17.213  0.00  0.00    +0.000 A 
ATOM     37  C   UNL     1      -8.927 -10.666  17.228  0.00  0.00    +0.000 A 
ATOM     38  C   UNL     1      -9.237 -11.301  15.985  0.00  0.00    +0.000 A 
ATOM     39  C   UNL     1      -9.700 -10.405  15.053  0.00  0.00    +0.000 A 
ATOM     40  S   UNL     1      -9.754  -8.816  15.670  0.00  0.00    +0.000 S 
ATOM     41  H   UNL     1      -8.540 -11.189  18.094  0.00  0.00    +0.000 HD
ATOM     42  H   UNL     1      -9.118 -12.360  15.787  0.00  0.00    +0.000 HD
ATOM     43  H   UNL     1     -10.002 -10.604  14.031  0.00  0.00    +0.000 HD
ENDBRANCH  34  36
BRANCH  35  44
ATOM     44  N   UNL     1      -7.715  -6.527  17.040  0.00  0.00    +0.000 N 
ATOM     45  H   UNL     1      -8.403  -6.514  16.287  0.00  0.00    +0.000 HD
ATOM     46  H   UNL     1      -6.913  -7.041  16.678  0.00  0.00    +0.000 HD
ENDBRANCH  35  44
ENDBRANCH  30  31
ENDBRANCH  27  30
ENDBRANCH   5  27
TORSDOF 6
ENDMDL
MODEL 8
REMARK VINA RESULT:    -7.960      1.873      2.380
REMARK INTER + INTRA:         -10.393
REMARK INTER:                  -9.821
REMARK INTRA:                  -0.572
REMARK UNBOUND:                -0.107
REMARK  Name = 
REMARK  6 active torsions:
REMARK  status: ('A' for Active; 'I' for Inactive)
REMARK    1  A    between atoms: C_1  and  C_2
REMARK    2  A    between atoms: C_6  and  C_8
REMARK    3  A    between atoms: C_8  and  S_9
REMARK    4  A    between atoms: S_9  and  C_10
REMARK    5  A    between atoms: C_13  and  C_14
REMARK    6  A    between atoms: N_19  and  N_20
REMARK                            x       y       z     vdW  Elec       q    Type
REMARK                         _______ _______ _______ _____ _____    ______ ____
ROOT
ATOM      1  C   UNL     1     -10.363   1.356  19.030  0.00  0.00    +0.000 C 
ATOM      2  C   UNL     1     -10.064   0.820  17.625  0.00  0.00    +0.000 C 
ATOM      3  C   UNL     1      -9.146  -0.401  17.618  0.00  0.00    +0.000 C 
ATOM      4  N   UNL     1      -9.777  -1.627  18.113  0.00  0.00    +0.000 N 
ATOM      5  C   UNL     1     -10.443  -2.474  17.219  0.00  0.00    +0.000 C 
ATOM      6  O   UNL     1     -10.458  -2.207  16.013  0.00  0.00    +0.000 OA
ATOM      7  C   UNL     1      -9.654  -1.858  19.504  0.00  0.00    +0.000 A 
ATOM      8  C   UNL     1      -8.763  -2.845  19.944  0.00  0.00    +0.000 A 
ATOM      9  C   UNL     1      -8.512  -3.007  21.307  0.00  0.00    +0.000 A 
ATOM     10  C   UNL     1      -9.155  -2.193  22.236  0.00  0.00    +0.000 A 
ATOM     11  C   UNL     1     -10.049  -1.212  21.805  0.00  0.00    +0.000 A 
ATOM     12  C   UNL     1     -10.291  -1.022  20.439  0.00  0.00    +0.000 A 
ATOM     13  S   UNL     1     -11.466   0.242  19.974  0.00  0.00    +0.000 S 
ATOM     14  H   UNL     1      -9.430   1.486  19.591  0.00  0.00    +0.000 HD
ATOM     15  H   UNL     1      -9.551   1.610  17.060  0.00  0.00    +0.000 HD
ATOM     16  H   UNL     1     -10.993   0.605  17.082  0.00  0.00    +0.000 HD
ATOM     17  H   UNL     1      -8.236  -0.202  18.201  0.00  0.00    +0.000 HD
ATOM     18  H   UNL     1      -8.808  -0.575  16.589  0.00  0.00    +0.000 HD
ATOM     19  H   UNL     1      -8.223  -3.461  19.229  0.00  0.00    +0.000 HD
ATOM     20  H   UNL     1      -7.802  -3.759  21.645  0.00  0.00    +0.000 HD
ATOM     21  H   UNL     1      -8.959  -2.317  23.299  0.00  0.00    +0.000 HD
ATOM     22  H   UNL     1     -10.549  -0.590  22.545  0.00  0.00    +0.000 HD
ENDROOT
BRANCH   1  23
ATOM     23  C   UNL     1     -11.049   2.722  18.945  0.00  0.00    +0.000 C 
ATOM     24  H   UNL     1     -10.520   3.369  18.235  0.00  0.00    +0.000 HD
ATOM     25  H   UNL     1     -11.042   3.234  19.913  0.00  0.00    +0.000 HD
ATOM     26  H   UNL     1     -12.087   2.637  18.605  0.00  0.00    +0.000 HD
ENDBRANCH   1  23
BRANCH   5  27
ATOM     27  C   UNL     1     -11.158  -3.708  17.798  0.00  0.00    +0.000 C 
ATOM     28  H   UNL     1     -12.012  -3.381  18.398  0.00  0.00    +0.000 HD
ATOM     29  H   UNL     1     -10.454  -4.275  18.412  0.00  0.00    +0.000 HD
BRANCH  27  30
ATOM     30  S   UNL     1     -11.761  -4.798  16.457  0.00  0.00    +0.000 S 
BRANCH  30  31
ATOM     31  C   UNL     1     -10.523  -6.003  16.354  0.00  0.00    +0.000 A 
ATOM     32  N   UNL     1      -9.338  -5.889  15.801  0.00  0.00    +0.000 NA
ATOM     33  N   UNL     1      -8.717  -7.122  15.891  0.00  0.00    +0.000 NA
ATOM     34  C   UNL     1      -9.553  -7.972  16.461  0.00  0.00    +0.000 A 
ATOM     35  N   UNL     1     -10.690  -7.282  16.841  0.00  0.00    +0.000 N 
BRANCH  34  36
ATOM     36  C   UNL     1      -9.295  -9.383  16.613  0.00  0.00    +0.000 A 
ATOM     37  C   UNL     1      -9.399 -10.354  15.634  0.00  0.00    +0.000 A 
ATOM     38  C   UNL     1      -9.114 -11.667  16.123  0.00  0.00    +0.000 A 
ATOM     39  C   UNL     1      -8.817 -11.662  17.464  0.00  0.00    +0.000 A 
ATOM     40  S   UNL     1      -8.886 -10.091  18.125  0.00  0.00    +0.000 S 
ATOM     41  H   UNL     1      -9.666 -10.136  14.607  0.00  0.00    +0.000 HD
ATOM     42  H   UNL     1      -9.136 -12.568  15.521  0.00  0.00    +0.000 HD
ATOM     43  H   UNL     1      -8.570 -12.509  18.095  0.00  0.00    +0.000 HD
ENDBRANCH  34  36
BRANCH  35  44
ATOM     44  N   UNL     1     -11.815  -7.781  17.600  0.00  0.00    +0.000 N 
ATOM     45  H   UNL     1     -12.302  -8.521  17.095  0.00  0.00    +0.000 HD
ATOM     46  H   UNL     1     -12.502  -7.042  17.745  0.00  0.00    +0.000 HD
ENDBRANCH  35  44
ENDBRANCH  30  31
ENDBRANCH  27  30
ENDBRANCH   5  27
TORSDOF 6
ENDMDL
MODEL 9
REMARK VINA RESULT:    -7.705      3.556      4.914
REMARK INTER + INTRA:         -10.065
REMARK INTER:                  -9.525
REMARK INTRA:                  -0.539
REMARK UNBOUND:                -0.107
REMARK  Name = 
REMARK  6 active torsions:
REMARK  status: ('A' for Active; 'I' for Inactive)
REMARK    1  A    between atoms: C_1  and  C_2
REMARK    2  A    between atoms: C_6  and  C_8
REMARK    3  A    between atoms: C_8  and  S_9
REMARK    4  A    between atoms: S_9  and  C_10
REMARK    5  A    between atoms: C_13  and  C_14
REMARK    6  A    between atoms: N_19  and  N_20
REMARK                            x       y       z     vdW  Elec       q    Type
REMARK                         _______ _______ _______ _____ _____    ______ ____
ROOT
ATOM      1  C   UNL     1     -12.617  -0.425  13.787  0.00  0.00    +0.000 C 
ATOM      2  C   UNL     1     -12.051  -1.778  13.340  0.00  0.00    +0.000 C 
ATOM      3  C   UNL     1     -10.752  -2.162  14.047  0.00  0.00    +0.000 C 
ATOM      4  N   UNL     1     -10.923  -2.531  15.454  0.00  0.00    +0.000 N 
ATOM      5  C   UNL     1     -11.173  -3.865  15.796  0.00  0.00    +0.000 C 
ATOM      6  O   UNL     1     -11.206  -4.731  14.916  0.00  0.00    +0.000 OA
ATOM      7  C   UNL     1     -10.816  -1.467  16.381  0.00  0.00    +0.000 A 
ATOM      8  C   UNL     1      -9.656  -1.372  17.161  0.00  0.00    +0.000 A 
ATOM      9  C   UNL     1      -9.454  -0.263  17.984  0.00  0.00    +0.000 A 
ATOM     10  C   UNL     1     -10.409   0.749  18.039  0.00  0.00    +0.000 A 
ATOM     11  C   UNL     1     -11.569   0.657  17.269  0.00  0.00    +0.000 A 
ATOM     12  C   UNL     1     -11.774  -0.438  16.420  0.00  0.00    +0.000 A 
ATOM     13  S   UNL     1     -13.296  -0.487  15.485  0.00  0.00    +0.000 S 
ATOM     14  H   UNL     1     -11.834   0.342  13.749  0.00  0.00    +0.000 HD
ATOM     15  H   UNL     1     -11.825  -1.717  12.267  0.00  0.00    +0.000 HD
ATOM     16  H   UNL     1     -12.799  -2.572  13.454  0.00  0.00    +0.000 HD
ATOM     17  H   UNL     1     -10.017  -1.349  13.973  0.00  0.00    +0.000 HD
ATOM     18  H   UNL     1     -10.306  -3.014  13.516  0.00  0.00    +0.000 HD
ATOM     19  H   UNL     1      -8.884  -2.134  17.099  0.00  0.00    +0.000 HD
ATOM     20  H   UNL     1      -8.542  -0.181  18.573  0.00  0.00    +0.000 HD
ATOM     21  H   UNL     1     -10.252   1.615  18.680  0.00  0.00    +0.000 HD
ATOM     22  H   UNL     1     -12.309   1.453  17.330  0.00  0.00    +0.000 HD
ENDROOT
BRANCH   1  23
ATOM     23  C   UNL     1     -13.746   0.015  12.853  0.00  0.00    +0.000 C 
ATOM     24  H   UNL     1     -14.521  -0.758  12.803  0.00  0.00    +0.000 HD
ATOM     25  H   UNL     1     -13.382   0.172  11.831  0.00  0.00    +0.000 HD
ATOM     26  H   UNL     1     -14.223   0.940  13.196  0.00  0.00    +0.000 HD
ENDBRANCH   1  23
BRANCH   5  27
ATOM     27  C   UNL     1     -11.426  -4.190  17.280  0.00  0.00    +0.000 C 
ATOM     28  H   UNL     1     -12.348  -4.772  17.370  0.00  0.00    +0.000 HD
ATOM     29  H   UNL     1     -11.506  -3.256  17.842  0.00  0.00    +0.000 HD
BRANCH  27  30
ATOM     30  S   UNL     1     -10.042  -5.164  17.977  0.00  0.00    +0.000 S 
BRANCH  30  31
ATOM     31  C   UNL     1     -10.357  -6.760  17.387  0.00  0.00    +0.000 A 
ATOM     32  N   UNL     1     -11.517  -7.369  17.306  0.00  0.00    +0.000 NA
ATOM     33  N   UNL     1     -11.281  -8.652  16.844  0.00  0.00    +0.000 NA
ATOM     34  C   UNL     1      -9.978  -8.809  16.692  0.00  0.00    +0.000 A 
ATOM     35  N   UNL     1      -9.355  -7.603  16.955  0.00  0.00    +0.000 N 
BRANCH  34  36
ATOM     36  C   UNL     1      -9.349 -10.058  16.338  0.00  0.00    +0.000 A 
ATOM     37  C   UNL     1      -9.097 -10.527  15.061  0.00  0.00    +0.000 A 
ATOM     38  C   UNL     1      -8.497 -11.824  15.054  0.00  0.00    +0.000 A 
ATOM     39  C   UNL     1      -8.323 -12.316  16.324  0.00  0.00    +0.000 A 
ATOM     40  S   UNL     1      -8.882 -11.225  17.511  0.00  0.00    +0.000 S 
ATOM     41  H   UNL     1      -9.330  -9.964  14.165  0.00  0.00    +0.000 HD
ATOM     42  H   UNL     1      -8.217 -12.370  14.160  0.00  0.00    +0.000 HD
ATOM     43  H   UNL     1      -7.901 -13.271  16.617  0.00  0.00    +0.000 HD
ENDBRANCH  34  36
BRANCH  35  44
ATOM     44  N   UNL     1      -7.954  -7.278  16.802  0.00  0.00    +0.000 N 
ATOM     45  H   UNL     1      -7.367  -8.098  16.947  0.00  0.00    +0.000 HD
ATOM     46  H   UNL     1      -7.668  -6.599  17.506  0.00  0.00    +0.000 HD
ENDBRANCH  35  44
ENDBRANCH  30  31
ENDBRANCH  27  30
ENDBRANCH   5  27
TORSDOF 6
ENDMDL
