
 OpenBabel01112423063D

 35 37  0  0  0  0  0  0  0  0999 V2000
    1.1033    0.2656    0.5388 N   0  0  0  0  0  0  0  0  0  0  0  0
    2.4284    0.1268    0.0656 C   0  0  0  0  0  0  0  0  0  0  0  0
    3.2882    1.2492    0.0583 C   0  0  0  0  0  0  0  0  0  0  0  0
    2.7190    2.5130    0.3065 N   0  0  0  0  0  0  0  0  0  0  0  0
    3.3532    3.6667    0.7681 C   0  0  0  0  0  0  0  0  0  0  0  0
    4.6732    3.9956    0.4864 C   0  0  0  0  0  0  0  0  0  0  0  0
    5.2574    5.0814    1.1286 C   0  0  0  0  0  0  0  0  0  0  0  0
    4.4917    5.8503    1.9919 C   0  0  0  0  0  0  0  0  0  0  0  0
    5.2470    7.2928    2.9301 Br  0  0  0  0  0  0  0  0  0  0  0  0
    3.1570    5.5132    2.1528 C   0  0  0  0  0  0  0  0  0  0  0  0
    2.5812    4.4359    1.5640 N   0  0  0  0  0  0  0  0  0  0  0  0
    4.5989    1.1400   -0.2389 N   0  0  0  0  0  0  0  0  0  0  0  0
    5.0717   -0.0809   -0.4903 C   0  0  0  0  0  0  0  0  0  0  0  0
    4.3230   -1.1780   -0.5070 N   0  3  0  0  0  0  0  0  0  0  0  0
    3.0122   -1.1190   -0.2581 C   0  0  0  0  0  0  0  0  0  0  0  0
    2.3404   -2.3384   -0.3719 N   0  0  0  0  0  0  0  0  0  0  0  0
    1.0070   -2.4757   -0.8067 C   0  0  0  0  0  0  0  0  0  0  0  0
    0.4574   -1.6927   -1.8188 C   0  0  0  0  0  0  0  0  0  0  0  0
   -0.9205   -1.7231   -2.0087 C   0  0  0  0  0  0  0  0  0  0  0  0
   -1.6902   -2.6019   -1.2582 C   0  0  0  0  0  0  0  0  0  0  0  0
   -1.0457   -3.4144   -0.3436 C   0  0  0  0  0  0  0  0  0  0  0  0
    0.2800   -3.3448   -0.0871 N   0  0  0  0  0  0  0  0  0  0  0  0
    0.6040    1.0776    0.1743 H   0  0  0  0  0  0  0  0  0  0  0  0
    0.5016   -0.5559    0.5320 H   0  0  0  0  0  0  0  0  0  0  0  0
    1.8530    2.4667    0.8387 H   0  0  0  0  0  0  0  0  0  0  0  0
    5.2751    3.4084   -0.1934 H   0  0  0  0  0  0  0  0  0  0  0  0
    6.3110    5.3018    0.9721 H   0  0  0  0  0  0  0  0  0  0  0  0
    2.4972    6.0990    2.7817 H   0  0  0  0  0  0  0  0  0  0  0  0
    6.1295   -0.1828   -0.7052 H   0  0  0  0  0  0  0  0  0  0  0  0
    4.7334   -2.0818   -0.7218 H   0  0  0  0  0  0  0  0  0  0  0  0
    2.2923   -2.8432    0.5195 H   0  0  0  0  0  0  0  0  0  0  0  0
    1.0575   -0.9969   -2.3957 H   0  0  0  0  0  0  0  0  0  0  0  0
   -1.3935   -1.0566   -2.7261 H   0  0  0  0  0  0  0  0  0  0  0  0
   -2.7663   -2.6556   -1.3850 H   0  0  0  0  0  0  0  0  0  0  0  0
   -1.5949   -4.1507    0.2379 H   0  0  0  0  0  0  0  0  0  0  0  0
  1  2  1  0  0  0  0
  1 23  1  0  0  0  0
  1 24  1  0  0  0  0
  2  3  1  0  0  0  0
  2 15  2  0  0  0  0
  3  4  1  0  0  0  0
  3 12  2  0  0  0  0
  4  5  1  0  0  0  0
  4 25  1  0  0  0  0
  5  6  1  0  0  0  0
  5 11  2  0  0  0  0
  6  7  2  0  0  0  0
  6 26  1  0  0  0  0
  7  8  1  0  0  0  0
  7 27  1  0  0  0  0
  8  9  1  0  0  0  0
  8 10  2  0  0  0  0
 10 11  1  0  0  0  0
 10 28  1  0  0  0  0
 12 13  1  0  0  0  0
 13 14  2  0  0  0  0
 13 29  1  0  0  0  0
 14 15  1  0  0  0  0
 14 30  1  0  0  0  0
 15 16  1  0  0  0  0
 16 17  1  0  0  0  0
 16 31  1  0  0  0  0
 17 18  1  0  0  0  0
 17 22  2  0  0  0  0
 18 19  2  0  0  0  0
 18 32  1  0  0  0  0
 19 20  1  0  0  0  0
 19 33  1  0  0  0  0
 20 21  2  0  0  0  0
 20 34  1  0  0  0  0
 21 22  1  0  0  0  0
 21 35  1  0  0  0  0
M  CHG  1  14   1
M  END
$$$$
