MODEL 1
REMARK VINA RESULT:    -9.802      0.000      0.000
REMARK INTER + INTRA:         -12.575
REMARK INTER:                 -12.094
REMARK INTRA:                  -0.481
REMARK UNBOUND:                -0.481
REMARK  Name = 
REMARK  4 active torsions:
REMARK  status: ('A' for Active; 'I' for Inactive)
REMARK    1  A    between atoms: C_2  and  C_10
REMARK    2  A    between atoms: N_3  and  C_4
REMARK    3  A    between atoms: C_4  and  C_5
REMARK    4  A    between atoms: C_13  and  N_14
REMARK                            x       y       z     vdW  Elec       q    Type
REMARK                         _______ _______ _______ _____ _____    ______ ____
ROOT
ATOM      1  C   UNL     1     -11.682  -2.940  16.152  0.00  0.00    +0.000 A 
ATOM      2  C   UNL     1     -10.990  -3.871  15.364  0.00  0.00    +0.000 A 
ATOM      3  C   UNL     1     -10.569  -5.078  15.903  0.00  0.00    +0.000 A 
ATOM      4  C   UNL     1     -10.792  -5.351  17.251  0.00  0.00    +0.000 A 
ATOM      5  C   UNL     1     -11.507  -4.446  18.045  0.00  0.00    +0.000 A 
ATOM      6  C   UNL     1     -11.964  -3.243  17.479  0.00  0.00    +0.000 A 
ATOM      7  H   UNL     1     -10.758  -3.656  14.321  0.00  0.00    +0.000 HD
ATOM      8  H   UNL     1     -10.028  -5.773  15.273  0.00  0.00    +0.000 HD
ATOM      9  H   UNL     1     -11.728  -4.676  19.082  0.00  0.00    +0.000 HD
ATOM     10  H   UNL     1     -12.542  -2.571  18.116  0.00  0.00    +0.000 HD
ENDROOT
BRANCH   4  11
ATOM     11  N   UNL     1     -10.295  -6.575  17.714  0.00  0.00    +0.000 N 
ATOM     12  C   UNL     1     -10.624  -7.801  17.180  0.00  0.00    +0.000 C 
ATOM     13  O   UNL     1     -11.576  -7.914  16.404  0.00  0.00    +0.000 OA
ATOM     14  N   UNL     1      -9.794  -8.872  17.615  0.00  0.00    +0.000 N 
ATOM     15  C   UNL     1      -8.640  -8.623  18.538  0.00  0.00    +0.000 C 
ATOM     16  C   UNL     1      -8.471  -9.534  19.759  0.00  0.00    +0.000 C 
ATOM     17  C   UNL     1      -7.932 -10.908  19.423  0.00  0.00    +0.000 C 
ATOM     18  C   UNL     1      -8.922 -11.633  18.549  0.00  0.00    +0.000 C 
ATOM     19  C   UNL     1      -8.886 -11.139  17.131  0.00  0.00    +0.000 A 
ATOM     20  C   UNL     1      -8.194 -11.899  16.178  0.00  0.00    +0.000 A 
ATOM     21  C   UNL     1      -8.435 -11.715  14.824  0.00  0.00    +0.000 A 
ATOM     22  C   UNL     1      -9.426 -10.829  14.433  0.00  0.00    +0.000 A 
ATOM     23  C   UNL     1     -10.009  -9.980  15.376  0.00  0.00    +0.000 A 
ATOM     24  C   UNL     1      -9.627 -10.020  16.727  0.00  0.00    +0.000 A 
ATOM     25  H   UNL     1     -10.146  -6.601  18.709  0.00  0.00    +0.000 HD
ATOM     26  H   UNL     1      -8.699  -7.626  18.976  0.00  0.00    +0.000 HD
ATOM     27  H   UNL     1      -7.724  -8.596  17.933  0.00  0.00    +0.000 HD
ATOM     28  H   UNL     1      -7.752  -9.063  20.441  0.00  0.00    +0.000 HD
ATOM     29  H   UNL     1      -9.415  -9.614  20.312  0.00  0.00    +0.000 HD
ATOM     30  H   UNL     1      -7.784 -11.474  20.350  0.00  0.00    +0.000 HD
ATOM     31  H   UNL     1      -6.954 -10.834  18.931  0.00  0.00    +0.000 HD
ATOM     32  H   UNL     1      -9.945 -11.529  18.945  0.00  0.00    +0.000 HD
ATOM     33  H   UNL     1      -8.725 -12.713  18.567  0.00  0.00    +0.000 HD
ATOM     34  H   UNL     1      -7.485 -12.658  16.497  0.00  0.00    +0.000 HD
ATOM     35  H   UNL     1      -7.895 -12.296  14.085  0.00  0.00    +0.000 HD
ATOM     36  H   UNL     1      -9.714 -10.749  13.389  0.00  0.00    +0.000 HD
ATOM     37  H   UNL     1     -10.718  -9.259  14.987  0.00  0.00    +0.000 HD
ENDBRANCH   4  11
BRANCH   1  39
ATOM     38  O   UNL     1     -13.141  -1.135  15.724  0.00  0.00    +0.000 OA
ATOM     39  C   UNL     1     -12.071  -1.675  15.460  0.00  0.00    +0.000 C 
ATOM     40  N   UNL     1     -11.213  -1.183  14.502  0.00  0.00    +0.000 N 
ATOM     41  H   UNL     1     -10.385  -1.692  14.230  0.00  0.00    +0.000 HD
BRANCH  40  42
ATOM     42  C   UNL     1     -11.613  -0.045  13.695  0.00  0.00    +0.000 C 
ATOM     43  H   UNL     1     -10.931   0.789  13.901  0.00  0.00    +0.000 HD
ATOM     44  H   UNL     1     -12.600   0.278  14.044  0.00  0.00    +0.000 HD
BRANCH  42  45
ATOM     45  C   UNL     1     -11.623  -0.322  12.182  0.00  0.00    +0.000 C 
ATOM     46  C   UNL     1     -11.987  -1.758  11.831  0.00  0.00    +0.000 C 
ATOM     47  C   UNL     1     -13.492  -1.711  11.782  0.00  0.00    +0.000 C 
ATOM     48  C   UNL     1     -13.751  -0.337  11.206  0.00  0.00    +0.000 C 
ATOM     49  O   UNL     1     -12.650   0.497  11.583  0.00  0.00    +0.000 OA
ATOM     50  H   UNL     1     -10.658  -0.048  11.741  0.00  0.00    +0.000 HD
ATOM     51  H   UNL     1     -11.597  -2.505  12.528  0.00  0.00    +0.000 HD
ATOM     52  H   UNL     1     -11.602  -1.999  10.832  0.00  0.00    +0.000 HD
ATOM     53  H   UNL     1     -13.905  -1.779  12.795  0.00  0.00    +0.000 HD
ATOM     54  H   UNL     1     -13.937  -2.512  11.184  0.00  0.00    +0.000 HD
ATOM     55  H   UNL     1     -14.683   0.102  11.576  0.00  0.00    +0.000 HD
ATOM     56  H   UNL     1     -13.791  -0.364  10.112  0.00  0.00    +0.000 HD
ENDBRANCH  42  45
ENDBRANCH  40  42
ENDBRANCH   1  39
TORSDOF 4
ENDMDL
MODEL 2
REMARK VINA RESULT:    -9.745      0.904      1.155
REMARK INTER + INTRA:         -12.505
REMARK INTER:                 -12.236
REMARK INTRA:                  -0.270
REMARK UNBOUND:                -0.481
REMARK  Name = 
REMARK  4 active torsions:
REMARK  status: ('A' for Active; 'I' for Inactive)
REMARK    1  A    between atoms: C_2  and  C_10
REMARK    2  A    between atoms: N_3  and  C_4
REMARK    3  A    between atoms: C_4  and  C_5
REMARK    4  A    between atoms: C_13  and  N_14
REMARK                            x       y       z     vdW  Elec       q    Type
REMARK                         _______ _______ _______ _____ _____    ______ ____
ROOT
ATOM      1  C   UNL     1     -11.803  -3.228  15.930  0.00  0.00    +0.000 A 
ATOM      2  C   UNL     1     -11.211  -4.241  15.161  0.00  0.00    +0.000 A 
ATOM      3  C   UNL     1     -10.752  -5.406  15.760  0.00  0.00    +0.000 A 
ATOM      4  C   UNL     1     -10.837  -5.554  17.143  0.00  0.00    +0.000 A 
ATOM      5  C   UNL     1     -11.451  -4.566  17.922  0.00  0.00    +0.000 A 
ATOM      6  C   UNL     1     -11.948  -3.407  17.300  0.00  0.00    +0.000 A 
ATOM      7  H   UNL     1     -11.086  -4.124  14.084  0.00  0.00    +0.000 HD
ATOM      8  H   UNL     1     -10.290  -6.165  15.142  0.00  0.00    +0.000 HD
ATOM      9  H   UNL     1     -11.566  -4.700  18.992  0.00  0.00    +0.000 HD
ATOM     10  H   UNL     1     -12.447  -2.669  17.931  0.00  0.00    +0.000 HD
ENDROOT
BRANCH   4  11
ATOM     11  N   UNL     1     -10.311  -6.744  17.660  0.00  0.00    +0.000 N 
ATOM     12  C   UNL     1     -10.607  -8.000  17.179  0.00  0.00    +0.000 C 
ATOM     13  O   UNL     1     -11.553  -8.170  16.405  0.00  0.00    +0.000 OA
ATOM     14  N   UNL     1      -9.752  -9.029  17.662  0.00  0.00    +0.000 N 
ATOM     15  C   UNL     1      -8.608  -8.712  18.576  0.00  0.00    +0.000 C 
ATOM     16  C   UNL     1      -8.421  -9.564  19.836  0.00  0.00    +0.000 C 
ATOM     17  C   UNL     1      -7.847 -10.938  19.561  0.00  0.00    +0.000 C 
ATOM     18  C   UNL     1      -8.815 -11.725  18.717  0.00  0.00    +0.000 C 
ATOM     19  C   UNL     1      -8.787 -11.293  17.279  0.00  0.00    +0.000 A 
ATOM     20  C   UNL     1      -8.072 -12.075  16.361  0.00  0.00    +0.000 A 
ATOM     21  C   UNL     1      -8.312 -11.956  15.001  0.00  0.00    +0.000 A 
ATOM     22  C   UNL     1      -9.323 -11.113  14.569  0.00  0.00    +0.000 A 
ATOM     23  C   UNL     1      -9.931 -10.238  15.472  0.00  0.00    +0.000 A 
ATOM     24  C   UNL     1      -9.553 -10.211  16.825  0.00  0.00    +0.000 A 
ATOM     25  H   UNL     1     -10.165  -6.723  18.655  0.00  0.00    +0.000 HD
ATOM     26  H   UNL     1      -8.694  -7.699  18.971  0.00  0.00    +0.000 HD
ATOM     27  H   UNL     1      -7.691  -8.689  17.972  0.00  0.00    +0.000 HD
ATOM     28  H   UNL     1      -7.716  -9.047  20.498  0.00  0.00    +0.000 HD
ATOM     29  H   UNL     1      -9.365  -9.644  20.389  0.00  0.00    +0.000 HD
ATOM     30  H   UNL     1      -7.688 -11.460  20.512  0.00  0.00    +0.000 HD
ATOM     31  H   UNL     1      -6.869 -10.861  19.069  0.00  0.00    +0.000 HD
ATOM     32  H   UNL     1      -9.842 -11.629  19.105  0.00  0.00    +0.000 HD
ATOM     33  H   UNL     1      -8.591 -12.798  18.782  0.00  0.00    +0.000 HD
ATOM     34  H   UNL     1      -7.345 -12.802  16.715  0.00  0.00    +0.000 HD
ATOM     35  H   UNL     1      -7.755 -12.555  14.289  0.00  0.00    +0.000 HD
ATOM     36  H   UNL     1      -9.609 -11.086  13.522  0.00  0.00    +0.000 HD
ATOM     37  H   UNL     1     -10.657  -9.553  15.050  0.00  0.00    +0.000 HD
ENDBRANCH   4  11
BRANCH   1  39
ATOM     38  O   UNL     1     -12.936  -1.169  15.721  0.00  0.00    +0.000 OA
ATOM     39  C   UNL     1     -12.245  -2.021  15.171  0.00  0.00    +0.000 C 
ATOM     40  N   UNL     1     -11.885  -1.934  13.844  0.00  0.00    +0.000 N 
ATOM     41  H   UNL     1     -11.399  -2.690  13.384  0.00  0.00    +0.000 HD
BRANCH  40  42
ATOM     42  C   UNL     1     -12.415  -0.861  13.024  0.00  0.00    +0.000 C 
ATOM     43  H   UNL     1     -11.576  -0.282  12.620  0.00  0.00    +0.000 HD
ATOM     44  H   UNL     1     -12.963  -0.179  13.684  0.00  0.00    +0.000 HD
BRANCH  42  45
ATOM     45  C   UNL     1     -13.300  -1.339  11.861  0.00  0.00    +0.000 C 
ATOM     46  C   UNL     1     -12.949  -0.692  10.527  0.00  0.00    +0.000 C 
ATOM     47  C   UNL     1     -11.860  -1.593  10.004  0.00  0.00    +0.000 C 
ATOM     48  C   UNL     1     -12.312  -2.954  10.483  0.00  0.00    +0.000 C 
ATOM     49  O   UNL     1     -13.075  -2.753  11.677  0.00  0.00    +0.000 OA
ATOM     50  H   UNL     1     -14.357  -1.183  12.099  0.00  0.00    +0.000 HD
ATOM     51  H   UNL     1     -12.649   0.357  10.600  0.00  0.00    +0.000 HD
ATOM     52  H   UNL     1     -13.814  -0.747   9.855  0.00  0.00    +0.000 HD
ATOM     53  H   UNL     1     -10.900  -1.331  10.465  0.00  0.00    +0.000 HD
ATOM     54  H   UNL     1     -11.735  -1.546   8.918  0.00  0.00    +0.000 HD
ATOM     55  H   UNL     1     -11.472  -3.622  10.696  0.00  0.00    +0.000 HD
ATOM     56  H   UNL     1     -12.964  -3.439   9.748  0.00  0.00    +0.000 HD
ENDBRANCH  42  45
ENDBRANCH  40  42
ENDBRANCH   1  39
TORSDOF 4
ENDMDL
MODEL 3
REMARK VINA RESULT:    -9.647      3.760      4.955
REMARK INTER + INTRA:         -12.384
REMARK INTER:                 -12.363
REMARK INTRA:                  -0.021
REMARK UNBOUND:                -0.481
REMARK  Name = 
REMARK  4 active torsions:
REMARK  status: ('A' for Active; 'I' for Inactive)
REMARK    1  A    between atoms: C_2  and  C_10
REMARK    2  A    between atoms: N_3  and  C_4
REMARK    3  A    between atoms: C_4  and  C_5
REMARK    4  A    between atoms: C_13  and  N_14
REMARK                            x       y       z     vdW  Elec       q    Type
REMARK                         _______ _______ _______ _____ _____    ______ ____
ROOT
ATOM      1  C   UNL     1     -10.202  -2.773  18.868  0.00  0.00    +0.000 A 
ATOM      2  C   UNL     1      -8.990  -3.363  19.255  0.00  0.00    +0.000 A 
ATOM      3  C   UNL     1      -8.815  -4.737  19.175  0.00  0.00    +0.000 A 
ATOM      4  C   UNL     1      -9.869  -5.546  18.752  0.00  0.00    +0.000 A 
ATOM      5  C   UNL     1     -11.075  -4.972  18.335  0.00  0.00    +0.000 A 
ATOM      6  C   UNL     1     -11.227  -3.575  18.381  0.00  0.00    +0.000 A 
ATOM      7  H   UNL     1      -8.171  -2.754  19.638  0.00  0.00    +0.000 HD
ATOM      8  H   UNL     1      -7.873  -5.165  19.490  0.00  0.00    +0.000 HD
ATOM      9  H   UNL     1     -11.880  -5.594  17.956  0.00  0.00    +0.000 HD
ATOM     10  H   UNL     1     -12.170  -3.156  18.023  0.00  0.00    +0.000 HD
ENDROOT
BRANCH   4  11
ATOM     11  N   UNL     1      -9.613  -6.922  18.744  0.00  0.00    +0.000 N 
ATOM     12  C   UNL     1     -10.130  -7.805  17.823  0.00  0.00    +0.000 C 
ATOM     13  O   UNL     1     -11.055  -7.469  17.080  0.00  0.00    +0.000 OA
ATOM     14  N   UNL     1      -9.518  -9.090  17.835  0.00  0.00    +0.000 N 
ATOM     15  C   UNL     1      -8.376  -9.388  18.758  0.00  0.00    +0.000 C 
ATOM     16  C   UNL     1      -8.418 -10.683  19.578  0.00  0.00    +0.000 C 
ATOM     17  C   UNL     1      -8.115 -11.925  18.768  0.00  0.00    +0.000 C 
ATOM     18  C   UNL     1      -9.182 -12.112  17.720  0.00  0.00    +0.000 C 
ATOM     19  C   UNL     1      -9.004 -11.169  16.564  0.00  0.00    +0.000 A 
ATOM     20  C   UNL     1      -8.418 -11.659  15.389  0.00  0.00    +0.000 A 
ATOM     21  C   UNL     1      -8.569 -10.974  14.192  0.00  0.00    +0.000 A 
ATOM     22  C   UNL     1      -9.373  -9.846  14.160  0.00  0.00    +0.000 A 
ATOM     23  C   UNL     1      -9.835  -9.290  15.355  0.00  0.00    +0.000 A 
ATOM     24  C   UNL     1      -9.520  -9.867  16.596  0.00  0.00    +0.000 A 
ATOM     25  H   UNL     1      -9.510  -7.320  19.662  0.00  0.00    +0.000 HD
ATOM     26  H   UNL     1      -8.277  -8.614  19.518  0.00  0.00    +0.000 HD
ATOM     27  H   UNL     1      -7.447  -9.316  18.177  0.00  0.00    +0.000 HD
ATOM     28  H   UNL     1      -7.655 -10.615  20.363  0.00  0.00    +0.000 HD
ATOM     29  H   UNL     1      -9.383 -10.781  20.090  0.00  0.00    +0.000 HD
ATOM     30  H   UNL     1      -8.106 -12.796  19.434  0.00  0.00    +0.000 HD
ATOM     31  H   UNL     1      -7.120 -11.860  18.310  0.00  0.00    +0.000 HD
ATOM     32  H   UNL     1     -10.185 -11.972  18.152  0.00  0.00    +0.000 HD
ATOM     33  H   UNL     1      -9.177 -13.147  17.354  0.00  0.00    +0.000 HD
ATOM     34  H   UNL     1      -7.866 -12.595  15.404  0.00  0.00    +0.000 HD
ATOM     35  H   UNL     1      -8.110 -11.347  13.283  0.00  0.00    +0.000 HD
ATOM     36  H   UNL     1      -9.600  -9.357  13.218  0.00  0.00    +0.000 HD
ATOM     37  H   UNL     1     -10.391  -8.364  15.261  0.00  0.00    +0.000 HD
ENDBRANCH   4  11
BRANCH   1  39
ATOM     38  O   UNL     1      -9.244  -0.618  18.929  0.00  0.00    +0.000 OA
ATOM     39  C   UNL     1     -10.269  -1.288  19.011  0.00  0.00    +0.000 C 
ATOM     40  N   UNL     1     -11.498  -0.728  19.275  0.00  0.00    +0.000 N 
ATOM     41  H   UNL     1     -12.312  -1.303  19.435  0.00  0.00    +0.000 HD
BRANCH  40  42
ATOM     42  C   UNL     1     -11.593   0.690  19.573  0.00  0.00    +0.000 C 
ATOM     43  H   UNL     1     -12.144   1.182  18.762  0.00  0.00    +0.000 HD
ATOM     44  H   UNL     1     -10.579   1.103  19.544  0.00  0.00    +0.000 HD
BRANCH  42  45
ATOM     45  C   UNL     1     -12.283   1.005  20.911  0.00  0.00    +0.000 C 
ATOM     46  C   UNL     1     -12.464  -0.216  21.803  0.00  0.00    +0.000 C 
ATOM     47  C   UNL     1     -11.156  -0.274  22.548  0.00  0.00    +0.000 C 
ATOM     48  C   UNL     1     -10.830   1.190  22.738  0.00  0.00    +0.000 C 
ATOM     49  O   UNL     1     -11.432   1.905  21.653  0.00  0.00    +0.000 OA
ATOM     50  H   UNL     1     -13.243   1.501  20.734  0.00  0.00    +0.000 HD
ATOM     51  H   UNL     1     -12.699  -1.138  21.262  0.00  0.00    +0.000 HD
ATOM     52  H   UNL     1     -13.276  -0.031  22.516  0.00  0.00    +0.000 HD
ATOM     53  H   UNL     1     -10.389  -0.752  21.926  0.00  0.00    +0.000 HD
ATOM     54  H   UNL     1     -11.212  -0.822  23.492  0.00  0.00    +0.000 HD
ATOM     55  H   UNL     1      -9.753   1.381  22.747  0.00  0.00    +0.000 HD
ATOM     56  H   UNL     1     -11.259   1.576  23.670  0.00  0.00    +0.000 HD
ENDBRANCH  42  45
ENDBRANCH  40  42
ENDBRANCH   1  39
TORSDOF 4
ENDMDL
MODEL 4
REMARK VINA RESULT:    -9.601      2.634      3.852
REMARK INTER + INTRA:         -12.327
REMARK INTER:                 -11.882
REMARK INTRA:                  -0.445
REMARK UNBOUND:                -0.481
REMARK  Name = 
REMARK  4 active torsions:
REMARK  status: ('A' for Active; 'I' for Inactive)
REMARK    1  A    between atoms: C_2  and  C_10
REMARK    2  A    between atoms: N_3  and  C_4
REMARK    3  A    between atoms: C_4  and  C_5
REMARK    4  A    between atoms: C_13  and  N_14
REMARK                            x       y       z     vdW  Elec       q    Type
REMARK                         _______ _______ _______ _____ _____    ______ ____
ROOT
ATOM      1  C   UNL     1     -12.144  -2.088  15.620  0.00  0.00    +0.000 A 
ATOM      2  C   UNL     1     -11.599  -2.769  14.523  0.00  0.00    +0.000 A 
ATOM      3  C   UNL     1     -11.217  -4.098  14.635  0.00  0.00    +0.000 A 
ATOM      4  C   UNL     1     -11.332  -4.751  15.861  0.00  0.00    +0.000 A 
ATOM      5  C   UNL     1     -11.901  -4.095  16.959  0.00  0.00    +0.000 A 
ATOM      6  C   UNL     1     -12.321  -2.760  16.823  0.00  0.00    +0.000 A 
ATOM      7  H   UNL     1     -11.452  -2.262  13.569  0.00  0.00    +0.000 HD
ATOM      8  H   UNL     1     -10.790  -4.595  13.774  0.00  0.00    +0.000 HD
ATOM      9  H   UNL     1     -12.039  -4.615  17.901  0.00  0.00    +0.000 HD
ATOM     10  H   UNL     1     -12.787  -2.286  17.690  0.00  0.00    +0.000 HD
ENDROOT
BRANCH   4  11
ATOM     11  N   UNL     1     -10.882  -6.077  15.888  0.00  0.00    +0.000 N 
ATOM     12  C   UNL     1      -9.774  -6.509  16.580  0.00  0.00    +0.000 C 
ATOM     13  O   UNL     1      -8.960  -5.700  17.032  0.00  0.00    +0.000 OA
ATOM     14  N   UNL     1      -9.670  -7.924  16.696  0.00  0.00    +0.000 N 
ATOM     15  C   UNL     1     -10.733  -8.820  16.137  0.00  0.00    +0.000 C 
ATOM     16  C   UNL     1     -10.303 -10.022  15.289  0.00  0.00    +0.000 C 
ATOM     17  C   UNL     1      -9.735 -11.167  16.101  0.00  0.00    +0.000 C 
ATOM     18  C   UNL     1      -8.468 -10.718  16.781  0.00  0.00    +0.000 C 
ATOM     19  C   UNL     1      -8.750  -9.851  17.976  0.00  0.00    +0.000 A 
ATOM     20  C   UNL     1      -8.679 -10.430  19.251  0.00  0.00    +0.000 A 
ATOM     21  C   UNL     1      -8.551  -9.631  20.377  0.00  0.00    +0.000 A 
ATOM     22  C   UNL     1      -8.414  -8.262  20.218  0.00  0.00    +0.000 A 
ATOM     23  C   UNL     1      -8.626  -7.685  18.964  0.00  0.00    +0.000 A 
ATOM     24  C   UNL     1      -8.954  -8.471  17.847  0.00  0.00    +0.000 A 
ATOM     25  H   UNL     1     -11.031  -6.572  15.025  0.00  0.00    +0.000 HD
ATOM     26  H   UNL     1     -11.397  -8.269  15.471  0.00  0.00    +0.000 HD
ATOM     27  H   UNL     1     -11.381  -9.131  16.967  0.00  0.00    +0.000 HD
ATOM     28  H   UNL     1     -11.187 -10.406  14.766  0.00  0.00    +0.000 HD
ATOM     29  H   UNL     1      -9.594  -9.710  14.513  0.00  0.00    +0.000 HD
ATOM     30  H   UNL     1      -9.509 -12.006  15.432  0.00  0.00    +0.000 HD
ATOM     31  H   UNL     1     -10.468 -11.528  16.833  0.00  0.00    +0.000 HD
ATOM     32  H   UNL     1      -7.819 -10.170  16.080  0.00  0.00    +0.000 HD
ATOM     33  H   UNL     1      -7.874 -11.588  17.091  0.00  0.00    +0.000 HD
ATOM     34  H   UNL     1      -8.693 -11.511  19.360  0.00  0.00    +0.000 HD
ATOM     35  H   UNL     1      -8.503 -10.077  21.365  0.00  0.00    +0.000 HD
ATOM     36  H   UNL     1      -8.199  -7.626  21.071  0.00  0.00    +0.000 HD
ATOM     37  H   UNL     1      -8.580  -6.603  18.928  0.00  0.00    +0.000 HD
ENDBRANCH   4  11
BRANCH   1  39
ATOM     38  O   UNL     1     -11.643   0.212  15.442  0.00  0.00    +0.000 OA
ATOM     39  C   UNL     1     -12.505  -0.659  15.375  0.00  0.00    +0.000 C 
ATOM     40  N   UNL     1     -13.827  -0.370  15.121  0.00  0.00    +0.000 N 
ATOM     41  H   UNL     1     -14.537  -1.087  15.165  0.00  0.00    +0.000 HD
BRANCH  40  42
ATOM     42  C   UNL     1     -14.256   1.013  15.027  0.00  0.00    +0.000 C 
ATOM     43  H   UNL     1     -14.788   1.151  14.078  0.00  0.00    +0.000 HD
ATOM     44  H   UNL     1     -13.356   1.635  14.962  0.00  0.00    +0.000 HD
BRANCH  42  45
ATOM     45  C   UNL     1     -15.163   1.469  16.182  0.00  0.00    +0.000 C 
ATOM     46  C   UNL     1     -14.775   2.823  16.760  0.00  0.00    +0.000 C 
ATOM     47  C   UNL     1     -15.514   3.785  15.866  0.00  0.00    +0.000 C 
ATOM     48  C   UNL     1     -16.796   3.036  15.580  0.00  0.00    +0.000 C 
ATOM     49  O   UNL     1     -16.499   1.637  15.662  0.00  0.00    +0.000 OA
ATOM     50  H   UNL     1     -15.189   0.706  16.967  0.00  0.00    +0.000 HD
ATOM     51  H   UNL     1     -13.697   3.004  16.799  0.00  0.00    +0.000 HD
ATOM     52  H   UNL     1     -15.166   2.910  17.782  0.00  0.00    +0.000 HD
ATOM     53  H   UNL     1     -14.954   3.940  14.936  0.00  0.00    +0.000 HD
ATOM     54  H   UNL     1     -15.687   4.763  16.321  0.00  0.00    +0.000 HD
ATOM     55  H   UNL     1     -17.201   3.264  14.589  0.00  0.00    +0.000 HD
ATOM     56  H   UNL     1     -17.564   3.259  16.329  0.00  0.00    +0.000 HD
ENDBRANCH  42  45
ENDBRANCH  40  42
ENDBRANCH   1  39
TORSDOF 4
ENDMDL
MODEL 5
REMARK VINA RESULT:    -9.543      4.691      9.952
REMARK INTER + INTRA:         -12.256
REMARK INTER:                 -11.870
REMARK INTRA:                  -0.386
REMARK UNBOUND:                -0.481
REMARK  Name = 
REMARK  4 active torsions:
REMARK  status: ('A' for Active; 'I' for Inactive)
REMARK    1  A    between atoms: C_2  and  C_10
REMARK    2  A    between atoms: N_3  and  C_4
REMARK    3  A    between atoms: C_4  and  C_5
REMARK    4  A    between atoms: C_13  and  N_14
REMARK                            x       y       z     vdW  Elec       q    Type
REMARK                         _______ _______ _______ _____ _____    ______ ____
ROOT
ATOM      1  C   UNL     1      -9.061  -6.202  17.373  0.00  0.00    +0.000 A 
ATOM      2  C   UNL     1      -8.050  -6.242  18.344  0.00  0.00    +0.000 A 
ATOM      3  C   UNL     1      -8.074  -5.371  19.424  0.00  0.00    +0.000 A 
ATOM      4  C   UNL     1      -9.085  -4.416  19.523  0.00  0.00    +0.000 A 
ATOM      5  C   UNL     1     -10.117  -4.382  18.578  0.00  0.00    +0.000 A 
ATOM      6  C   UNL     1     -10.105  -5.295  17.509  0.00  0.00    +0.000 A 
ATOM      7  H   UNL     1      -7.222  -6.945  18.259  0.00  0.00    +0.000 HD
ATOM      8  H   UNL     1      -7.275  -5.418  20.153  0.00  0.00    +0.000 HD
ATOM      9  H   UNL     1     -10.933  -3.674  18.679  0.00  0.00    +0.000 HD
ATOM     10  H   UNL     1     -10.938  -5.261  16.805  0.00  0.00    +0.000 HD
ENDROOT
BRANCH   4  11
ATOM     11  N   UNL     1      -9.002  -3.556  20.624  0.00  0.00    +0.000 N 
ATOM     12  C   UNL     1      -9.034  -2.182  20.542  0.00  0.00    +0.000 C 
ATOM     13  O   UNL     1      -8.894  -1.613  19.457  0.00  0.00    +0.000 OA
ATOM     14  N   UNL     1      -9.220  -1.524  21.791  0.00  0.00    +0.000 N 
ATOM     15  C   UNL     1      -9.412  -2.311  23.052  0.00  0.00    +0.000 C 
ATOM     16  C   UNL     1      -8.594  -1.920  24.287  0.00  0.00    +0.000 C 
ATOM     17  C   UNL     1      -9.087  -0.664  24.971  0.00  0.00    +0.000 C 
ATOM     18  C   UNL     1      -8.934   0.508  24.037  0.00  0.00    +0.000 C 
ATOM     19  C   UNL     1      -9.998   0.523  22.976  0.00  0.00    +0.000 A 
ATOM     20  C   UNL     1     -11.088   1.390  23.137  0.00  0.00    +0.000 A 
ATOM     21  C   UNL     1     -11.883   1.726  22.051  0.00  0.00    +0.000 A 
ATOM     22  C   UNL     1     -11.535   1.258  20.794  0.00  0.00    +0.000 A 
ATOM     23  C   UNL     1     -10.538   0.289  20.666  0.00  0.00    +0.000 A 
ATOM     24  C   UNL     1      -9.858  -0.209  21.789  0.00  0.00    +0.000 A 
ATOM     25  H   UNL     1      -8.408  -3.897  21.361  0.00  0.00    +0.000 HD
ATOM     26  H   UNL     1      -9.152  -3.358  22.901  0.00  0.00    +0.000 HD
ATOM     27  H   UNL     1     -10.486  -2.329  23.276  0.00  0.00    +0.000 HD
ATOM     28  H   UNL     1      -8.667  -2.736  25.018  0.00  0.00    +0.000 HD
ATOM     29  H   UNL     1      -7.531  -1.828  24.031  0.00  0.00    +0.000 HD
ATOM     30  H   UNL     1      -8.491  -0.487  25.875  0.00  0.00    +0.000 HD
ATOM     31  H   UNL     1     -10.131  -0.777  25.292  0.00  0.00    +0.000 HD
ATOM     32  H   UNL     1      -7.943   0.500  23.557  0.00  0.00    +0.000 HD
ATOM     33  H   UNL     1      -8.964   1.450  24.600  0.00  0.00    +0.000 HD
ATOM     34  H   UNL     1     -11.298   1.826  24.110  0.00  0.00    +0.000 HD
ATOM     35  H   UNL     1     -12.730   2.391  22.175  0.00  0.00    +0.000 HD
ATOM     36  H   UNL     1     -12.070   1.597  19.912  0.00  0.00    +0.000 HD
ATOM     37  H   UNL     1     -10.374  -0.089  19.663  0.00  0.00    +0.000 HD
ENDBRANCH   4  11
BRANCH   1  39
ATOM     38  O   UNL     1      -8.876  -6.786  15.094  0.00  0.00    +0.000 OA
ATOM     39  C   UNL     1      -8.916  -7.182  16.255  0.00  0.00    +0.000 C 
ATOM     40  N   UNL     1      -8.876  -8.519  16.580  0.00  0.00    +0.000 N 
ATOM     41  H   UNL     1      -9.007  -8.830  17.532  0.00  0.00    +0.000 HD
BRANCH  40  42
ATOM     42  C   UNL     1      -8.890  -9.516  15.526  0.00  0.00    +0.000 C 
ATOM     43  H   UNL     1      -7.855  -9.802  15.300  0.00  0.00    +0.000 HD
ATOM     44  H   UNL     1      -9.275  -9.036  14.620  0.00  0.00    +0.000 HD
BRANCH  42  45
ATOM     45  C   UNL     1      -9.694 -10.781  15.869  0.00  0.00    +0.000 C 
ATOM     46  C   UNL     1      -9.105 -12.054  15.277  0.00  0.00    +0.000 C 
ATOM     47  C   UNL     1      -8.103 -12.468  16.323  0.00  0.00    +0.000 C 
ATOM     48  C   UNL     1      -8.796 -12.068  17.607  0.00  0.00    +0.000 C 
ATOM     49  O   UNL     1      -9.654 -10.964  17.301  0.00  0.00    +0.000 OA
ATOM     50  H   UNL     1     -10.739 -10.660  15.564  0.00  0.00    +0.000 HD
ATOM     51  H   UNL     1      -8.669 -11.928  14.281  0.00  0.00    +0.000 HD
ATOM     52  H   UNL     1      -9.887 -12.820  15.205  0.00  0.00    +0.000 HD
ATOM     53  H   UNL     1      -7.175 -11.897  16.203  0.00  0.00    +0.000 HD
ATOM     54  H   UNL     1      -7.849 -13.531  16.291  0.00  0.00    +0.000 HD
ATOM     55  H   UNL     1      -8.089 -11.775  18.389  0.00  0.00    +0.000 HD
ATOM     56  H   UNL     1      -9.421 -12.881  17.991  0.00  0.00    +0.000 HD
ENDBRANCH  42  45
ENDBRANCH  40  42
ENDBRANCH   1  39
TORSDOF 4
ENDMDL
MODEL 6
REMARK VINA RESULT:    -9.437      4.834      9.841
REMARK INTER + INTRA:         -12.125
REMARK INTER:                 -11.656
REMARK INTRA:                  -0.469
REMARK UNBOUND:                -0.481
REMARK  Name = 
REMARK  4 active torsions:
REMARK  status: ('A' for Active; 'I' for Inactive)
REMARK    1  A    between atoms: C_2  and  C_10
REMARK    2  A    between atoms: N_3  and  C_4
REMARK    3  A    between atoms: C_4  and  C_5
REMARK    4  A    between atoms: C_13  and  N_14
REMARK                            x       y       z     vdW  Elec       q    Type
REMARK                         _______ _______ _______ _____ _____    ______ ____
ROOT
ATOM      1  C   UNL     1      -9.261  -8.184  17.078  0.00  0.00    +0.000 A 
ATOM      2  C   UNL     1     -10.034  -7.958  18.226  0.00  0.00    +0.000 A 
ATOM      3  C   UNL     1      -9.746  -6.898  19.074  0.00  0.00    +0.000 A 
ATOM      4  C   UNL     1      -8.649  -6.078  18.811  0.00  0.00    +0.000 A 
ATOM      5  C   UNL     1      -7.885  -6.273  17.654  0.00  0.00    +0.000 A 
ATOM      6  C   UNL     1      -8.210  -7.325  16.781  0.00  0.00    +0.000 A 
ATOM      7  H   UNL     1     -10.864  -8.618  18.479  0.00  0.00    +0.000 HD
ATOM      8  H   UNL     1     -10.354  -6.753  19.958  0.00  0.00    +0.000 HD
ATOM      9  H   UNL     1      -7.062  -5.605  17.419  0.00  0.00    +0.000 HD
ATOM     10  H   UNL     1      -7.612  -7.433  15.873  0.00  0.00    +0.000 HD
ENDROOT
BRANCH   4  11
ATOM     11  N   UNL     1      -8.413  -5.062  19.744  0.00  0.00    +0.000 N 
ATOM     12  C   UNL     1      -8.937  -3.791  19.661  0.00  0.00    +0.000 C 
ATOM     13  O   UNL     1      -9.462  -3.395  18.618  0.00  0.00    +0.000 OA
ATOM     14  N   UNL     1      -8.798  -3.021  20.850  0.00  0.00    +0.000 N 
ATOM     15  C   UNL     1      -8.171  -3.610  22.077  0.00  0.00    +0.000 C 
ATOM     16  C   UNL     1      -7.099  -2.797  22.811  0.00  0.00    +0.000 C 
ATOM     17  C   UNL     1      -7.656  -1.647  23.621  0.00  0.00    +0.000 C 
ATOM     18  C   UNL     1      -8.310  -0.653  22.697  0.00  0.00    +0.000 C 
ATOM     19  C   UNL     1      -9.654  -1.128  22.223  0.00  0.00    +0.000 A 
ATOM     20  C   UNL     1     -10.800  -0.607  22.839  0.00  0.00    +0.000 A 
ATOM     21  C   UNL     1     -12.036  -0.704  22.216  0.00  0.00    +0.000 A 
ATOM     22  C   UNL     1     -12.107  -1.250  20.945  0.00  0.00    +0.000 A 
ATOM     23  C   UNL     1     -10.991  -1.889  20.401  0.00  0.00    +0.000 A 
ATOM     24  C   UNL     1      -9.781  -1.972  21.111  0.00  0.00    +0.000 A 
ATOM     25  H   UNL     1      -7.490  -5.086  20.144  0.00  0.00    +0.000 HD
ATOM     26  H   UNL     1      -7.661  -4.544  21.844  0.00  0.00    +0.000 HD
ATOM     27  H   UNL     1      -8.980  -3.906  22.758  0.00  0.00    +0.000 HD
ATOM     28  H   UNL     1      -6.582  -3.465  23.511  0.00  0.00    +0.000 HD
ATOM     29  H   UNL     1      -6.339  -2.439  22.105  0.00  0.00    +0.000 HD
ATOM     30  H   UNL     1      -6.837  -1.155  24.160  0.00  0.00    +0.000 HD
ATOM     31  H   UNL     1      -8.366  -2.008  24.376  0.00  0.00    +0.000 HD
ATOM     32  H   UNL     1      -7.669  -0.447  21.825  0.00  0.00    +0.000 HD
ATOM     33  H   UNL     1      -8.420   0.318  23.198  0.00  0.00    +0.000 HD
ATOM     34  H   UNL     1     -10.721  -0.097  23.795  0.00  0.00    +0.000 HD
ATOM     35  H   UNL     1     -12.925  -0.308  22.694  0.00  0.00    +0.000 HD
ATOM     36  H   UNL     1     -13.039  -1.234  20.389  0.00  0.00    +0.000 HD
ATOM     37  H   UNL     1     -11.140  -2.362  19.437  0.00  0.00    +0.000 HD
ENDBRANCH   4  11
BRANCH   1  39
ATOM     38  O   UNL     1     -10.788  -9.409  15.760  0.00  0.00    +0.000 OA
ATOM     39  C   UNL     1      -9.665  -9.362  16.253  0.00  0.00    +0.000 C 
ATOM     40  N   UNL     1      -8.755 -10.386  16.114  0.00  0.00    +0.000 N 
ATOM     41  H   UNL     1      -7.874 -10.372  16.606  0.00  0.00    +0.000 HD
BRANCH  40  42
ATOM     42  C   UNL     1      -9.151 -11.615  15.453  0.00  0.00    +0.000 C 
ATOM     43  H   UNL     1      -9.307 -11.405  14.387  0.00  0.00    +0.000 HD
ATOM     44  H   UNL     1     -10.131 -11.904  15.850  0.00  0.00    +0.000 HD
BRANCH  42  45
ATOM     45  C   UNL     1      -8.135 -12.760  15.594  0.00  0.00    +0.000 C 
ATOM     46  C   UNL     1      -8.124 -13.395  16.979  0.00  0.00    +0.000 C 
ATOM     47  C   UNL     1      -9.208 -14.436  16.869  0.00  0.00    +0.000 C 
ATOM     48  C   UNL     1      -9.055 -14.908  15.440  0.00  0.00    +0.000 C 
ATOM     49  O   UNL     1      -8.518 -13.815  14.687  0.00  0.00    +0.000 OA
ATOM     50  H   UNL     1      -7.132 -12.413  15.321  0.00  0.00    +0.000 HD
ATOM     51  H   UNL     1      -8.281 -12.688  17.799  0.00  0.00    +0.000 HD
ATOM     52  H   UNL     1      -7.162 -13.893  17.146  0.00  0.00    +0.000 HD
ATOM     53  H   UNL     1     -10.192 -13.973  17.009  0.00  0.00    +0.000 HD
ATOM     54  H   UNL     1      -9.112 -15.248  17.596  0.00  0.00    +0.000 HD
ATOM     55  H   UNL     1     -10.007 -15.221  15.000  0.00  0.00    +0.000 HD
ATOM     56  H   UNL     1      -8.349 -15.742  15.369  0.00  0.00    +0.000 HD
ENDBRANCH  42  45
ENDBRANCH  40  42
ENDBRANCH   1  39
TORSDOF 4
ENDMDL
MODEL 7
REMARK VINA RESULT:    -9.397      1.737      2.746
REMARK INTER + INTRA:         -12.076
REMARK INTER:                 -11.487
REMARK INTRA:                  -0.589
REMARK UNBOUND:                -0.481
REMARK  Name = 
REMARK  4 active torsions:
REMARK  status: ('A' for Active; 'I' for Inactive)
REMARK    1  A    between atoms: C_2  and  C_10
REMARK    2  A    between atoms: N_3  and  C_4
REMARK    3  A    between atoms: C_4  and  C_5
REMARK    4  A    between atoms: C_13  and  N_14
REMARK                            x       y       z     vdW  Elec       q    Type
REMARK                         _______ _______ _______ _____ _____    ______ ____
ROOT
ATOM      1  C   UNL     1     -11.650  -3.008  15.712  0.00  0.00    +0.000 A 
ATOM      2  C   UNL     1     -11.875  -3.363  17.050  0.00  0.00    +0.000 A 
ATOM      3  C   UNL     1     -11.352  -4.541  17.565  0.00  0.00    +0.000 A 
ATOM      4  C   UNL     1     -10.637  -5.403  16.736  0.00  0.00    +0.000 A 
ATOM      5  C   UNL     1     -10.378  -5.050  15.406  0.00  0.00    +0.000 A 
ATOM      6  C   UNL     1     -10.878  -3.835  14.905  0.00  0.00    +0.000 A 
ATOM      7  H   UNL     1     -12.476  -2.729  17.702  0.00  0.00    +0.000 HD
ATOM      8  H   UNL     1     -11.551  -4.794  18.599  0.00  0.00    +0.000 HD
ATOM      9  H   UNL     1      -9.778  -5.693  14.772  0.00  0.00    +0.000 HD
ATOM     10  H   UNL     1     -10.636  -3.576  13.873  0.00  0.00    +0.000 HD
ENDROOT
BRANCH   4  11
ATOM     11  N   UNL     1     -10.185  -6.585  17.335  0.00  0.00    +0.000 N 
ATOM     12  C   UNL     1     -10.511  -7.851  16.901  0.00  0.00    +0.000 C 
ATOM     13  O   UNL     1     -11.427  -8.022  16.093  0.00  0.00    +0.000 OA
ATOM     14  N   UNL     1      -9.722  -8.888  17.474  0.00  0.00    +0.000 N 
ATOM     15  C   UNL     1      -8.608  -8.570  18.425  0.00  0.00    +0.000 C 
ATOM     16  C   UNL     1      -8.515  -9.364  19.732  0.00  0.00    +0.000 C 
ATOM     17  C   UNL     1      -7.986 -10.771  19.551  0.00  0.00    +0.000 C 
ATOM     18  C   UNL     1      -8.947 -11.562  18.702  0.00  0.00    +0.000 C 
ATOM     19  C   UNL     1      -8.835 -11.203  17.247  0.00  0.00    +0.000 A 
ATOM     20  C   UNL     1      -8.113 -12.059  16.404  0.00  0.00    +0.000 A 
ATOM     21  C   UNL     1      -8.286 -11.999  15.029  0.00  0.00    +0.000 A 
ATOM     22  C   UNL     1      -9.241 -11.139  14.509  0.00  0.00    +0.000 A 
ATOM     23  C   UNL     1      -9.852 -10.198  15.339  0.00  0.00    +0.000 A 
ATOM     24  C   UNL     1      -9.535 -10.117  16.705  0.00  0.00    +0.000 A 
ATOM     25  H   UNL     1     -10.083  -6.520  18.333  0.00  0.00    +0.000 HD
ATOM     26  H   UNL     1      -8.670  -7.536  18.765  0.00  0.00    +0.000 HD
ATOM     27  H   UNL     1      -7.665  -8.613  17.865  0.00  0.00    +0.000 HD
ATOM     28  H   UNL     1      -7.820  -8.842  20.401  0.00  0.00    +0.000 HD
ATOM     29  H   UNL     1      -9.485  -9.379  20.243  0.00  0.00    +0.000 HD
ATOM     30  H   UNL     1      -7.893 -11.251  20.533  0.00  0.00    +0.000 HD
ATOM     31  H   UNL     1      -6.985 -10.758  19.104  0.00  0.00    +0.000 HD
ATOM     32  H   UNL     1      -9.985 -11.406  19.035  0.00  0.00    +0.000 HD
ATOM     33  H   UNL     1      -8.771 -12.638  18.829  0.00  0.00    +0.000 HD
ATOM     34  H   UNL     1      -7.434 -12.795  16.826  0.00  0.00    +0.000 HD
ATOM     35  H   UNL     1      -7.723 -12.655  14.374  0.00  0.00    +0.000 HD
ATOM     36  H   UNL     1      -9.477 -11.154  13.450  0.00  0.00    +0.000 HD
ATOM     37  H   UNL     1     -10.528  -9.506  14.851  0.00  0.00    +0.000 HD
ENDBRANCH   4  11
BRANCH   1  39
ATOM     38  O   UNL     1     -11.877  -1.163  14.258  0.00  0.00    +0.000 OA
ATOM     39  C   UNL     1     -12.274  -1.723  15.275  0.00  0.00    +0.000 C 
ATOM     40  N   UNL     1     -13.261  -1.190  16.073  0.00  0.00    +0.000 N 
ATOM     41  H   UNL     1     -13.506  -1.615  16.956  0.00  0.00    +0.000 HD
BRANCH  40  42
ATOM     42  C   UNL     1     -13.791   0.128  15.777  0.00  0.00    +0.000 C 
ATOM     43  H   UNL     1     -14.879   0.048  15.654  0.00  0.00    +0.000 HD
ATOM     44  H   UNL     1     -13.399   0.431  14.800  0.00  0.00    +0.000 HD
BRANCH  42  45
ATOM     45  C   UNL     1     -13.485   1.184  16.851  0.00  0.00    +0.000 C 
ATOM     46  C   UNL     1     -12.213   0.898  17.638  0.00  0.00    +0.000 C 
ATOM     47  C   UNL     1     -11.148   1.532  16.781  0.00  0.00    +0.000 C 
ATOM     48  C   UNL     1     -11.857   2.754  16.240  0.00  0.00    +0.000 C 
ATOM     49  O   UNL     1     -13.255   2.445  16.187  0.00  0.00    +0.000 OA
ATOM     50  H   UNL     1     -14.340   1.298  17.526  0.00  0.00    +0.000 HD
ATOM     51  H   UNL     1     -12.036  -0.163  17.838  0.00  0.00    +0.000 HD
ATOM     52  H   UNL     1     -12.254   1.418  18.603  0.00  0.00    +0.000 HD
ATOM     53  H   UNL     1     -10.877   0.860  15.958  0.00  0.00    +0.000 HD
ATOM     54  H   UNL     1     -10.234   1.780  17.327  0.00  0.00    +0.000 HD
ATOM     55  H   UNL     1     -11.508   3.032  15.241  0.00  0.00    +0.000 HD
ATOM     56  H   UNL     1     -11.731   3.615  16.905  0.00  0.00    +0.000 HD
ENDBRANCH  42  45
ENDBRANCH  40  42
ENDBRANCH   1  39
TORSDOF 4
ENDMDL
MODEL 8
REMARK VINA RESULT:    -9.274      5.441     10.459
REMARK INTER + INTRA:         -11.923
REMARK INTER:                 -11.430
REMARK INTRA:                  -0.494
REMARK UNBOUND:                -0.481
REMARK  Name = 
REMARK  4 active torsions:
REMARK  status: ('A' for Active; 'I' for Inactive)
REMARK    1  A    between atoms: C_2  and  C_10
REMARK    2  A    between atoms: N_3  and  C_4
REMARK    3  A    between atoms: C_4  and  C_5
REMARK    4  A    between atoms: C_13  and  N_14
REMARK                            x       y       z     vdW  Elec       q    Type
REMARK                         _______ _______ _______ _____ _____    ______ ____
ROOT
ATOM      1  C   UNL     1      -9.693  -5.141  18.378  0.00  0.00    +0.000 A 
ATOM      2  C   UNL     1      -8.755  -4.444  19.152  0.00  0.00    +0.000 A 
ATOM      3  C   UNL     1      -9.076  -3.218  19.718  0.00  0.00    +0.000 A 
ATOM      4  C   UNL     1     -10.326  -2.650  19.478  0.00  0.00    +0.000 A 
ATOM      5  C   UNL     1     -11.285  -3.345  18.732  0.00  0.00    +0.000 A 
ATOM      6  C   UNL     1     -10.962  -4.605  18.196  0.00  0.00    +0.000 A 
ATOM      7  H   UNL     1      -7.753  -4.845  19.310  0.00  0.00    +0.000 HD
ATOM      8  H   UNL     1      -8.328  -2.698  20.302  0.00  0.00    +0.000 HD
ATOM      9  H   UNL     1     -12.277  -2.930  18.585  0.00  0.00    +0.000 HD
ATOM     10  H   UNL     1     -11.741  -5.134  17.643  0.00  0.00    +0.000 HD
ENDROOT
BRANCH   4  11
ATOM     11  N   UNL     1     -10.543  -1.393  20.056  0.00  0.00    +0.000 N 
ATOM     12  C   UNL     1     -10.746  -1.180  21.401  0.00  0.00    +0.000 C 
ATOM     13  O   UNL     1     -10.988  -2.123  22.158  0.00  0.00    +0.000 OA
ATOM     14  N   UNL     1     -10.662   0.185  21.796  0.00  0.00    +0.000 N 
ATOM     15  C   UNL     1     -10.329   1.254  20.801  0.00  0.00    +0.000 C 
ATOM     16  C   UNL     1     -11.191   2.521  20.774  0.00  0.00    +0.000 C 
ATOM     17  C   UNL     1     -10.912   3.471  21.919  0.00  0.00    +0.000 C 
ATOM     18  C   UNL     1     -11.269   2.804  23.222  0.00  0.00    +0.000 C 
ATOM     19  C   UNL     1     -10.232   1.801  23.642  0.00  0.00    +0.000 A 
ATOM     20  C   UNL     1      -9.303   2.173  24.623  0.00  0.00    +0.000 A 
ATOM     21  C   UNL     1      -8.586   1.207  25.313  0.00  0.00    +0.000 A 
ATOM     22  C   UNL     1      -8.860  -0.131  25.074  0.00  0.00    +0.000 A 
ATOM     23  C   UNL     1      -9.680  -0.490  24.003  0.00  0.00    +0.000 A 
ATOM     24  C   UNL     1     -10.257   0.482  23.169  0.00  0.00    +0.000 A 
ATOM     25  H   UNL     1     -11.065  -0.763  19.470  0.00  0.00    +0.000 HD
ATOM     26  H   UNL     1     -10.409   0.876  19.782  0.00  0.00    +0.000 HD
ATOM     27  H   UNL     1      -9.266   1.500  20.915  0.00  0.00    +0.000 HD
ATOM     28  H   UNL     1     -10.975   3.063  19.845  0.00  0.00    +0.000 HD
ATOM     29  H   UNL     1     -12.256   2.261  20.740  0.00  0.00    +0.000 HD
ATOM     30  H   UNL     1     -11.521   4.374  21.796  0.00  0.00    +0.000 HD
ATOM     31  H   UNL     1      -9.862   3.789  21.915  0.00  0.00    +0.000 HD
ATOM     32  H   UNL     1     -12.249   2.305  23.152  0.00  0.00    +0.000 HD
ATOM     33  H   UNL     1     -11.394   3.555  24.012  0.00  0.00    +0.000 HD
ATOM     34  H   UNL     1      -9.162   3.222  24.869  0.00  0.00    +0.000 HD
ATOM     35  H   UNL     1      -7.863   1.493  26.067  0.00  0.00    +0.000 HD
ATOM     36  H   UNL     1      -8.398  -0.904  25.679  0.00  0.00    +0.000 HD
ATOM     37  H   UNL     1      -9.787  -1.554  23.827  0.00  0.00    +0.000 HD
ENDBRANCH   4  11
BRANCH   1  39
ATOM     38  O   UNL     1      -8.464  -7.153  18.467  0.00  0.00    +0.000 OA
ATOM     39  C   UNL     1      -9.223  -6.442  17.816  0.00  0.00    +0.000 C 
ATOM     40  N   UNL     1      -9.638  -6.775  16.546  0.00  0.00    +0.000 N 
ATOM     41  H   UNL     1     -10.183  -6.133  15.989  0.00  0.00    +0.000 HD
BRANCH  40  42
ATOM     42  C   UNL     1      -9.090  -7.951  15.896  0.00  0.00    +0.000 C 
ATOM     43  H   UNL     1      -8.217  -8.291  16.466  0.00  0.00    +0.000 HD
ATOM     44  H   UNL     1      -8.709  -7.641  14.916  0.00  0.00    +0.000 HD
BRANCH  42  45
ATOM     45  C   UNL     1     -10.085  -9.115  15.761  0.00  0.00    +0.000 C 
ATOM     46  C   UNL     1      -9.757 -10.065  14.617  0.00  0.00    +0.000 C 
ATOM     47  C   UNL     1      -8.793 -11.028  15.259  0.00  0.00    +0.000 C 
ATOM     48  C   UNL     1      -9.342 -11.144  16.663  0.00  0.00    +0.000 C 
ATOM     49  O   UNL     1     -10.008  -9.912  16.962  0.00  0.00    +0.000 OA
ATOM     50  H   UNL     1     -11.107  -8.731  15.664  0.00  0.00    +0.000 HD
ATOM     51  H   UNL     1      -9.354  -9.574  13.726  0.00  0.00    +0.000 HD
ATOM     52  H   UNL     1     -10.663 -10.607  14.320  0.00  0.00    +0.000 HD
ATOM     53  H   UNL     1      -7.786 -10.595  15.283  0.00  0.00    +0.000 HD
ATOM     54  H   UNL     1      -8.730 -11.993  14.747  0.00  0.00    +0.000 HD
ATOM     55  H   UNL     1      -8.558 -11.324  17.405  0.00  0.00    +0.000 HD
ATOM     56  H   UNL     1     -10.081 -11.950  16.737  0.00  0.00    +0.000 HD
ENDBRANCH  42  45
ENDBRANCH  40  42
ENDBRANCH   1  39
TORSDOF 4
ENDMDL
MODEL 9
REMARK VINA RESULT:    -9.219      3.757     10.339
REMARK INTER + INTRA:         -11.856
REMARK INTER:                 -11.468
REMARK INTRA:                  -0.387
REMARK UNBOUND:                -0.481
REMARK  Name = 
REMARK  4 active torsions:
REMARK  status: ('A' for Active; 'I' for Inactive)
REMARK    1  A    between atoms: C_2  and  C_10
REMARK    2  A    between atoms: N_3  and  C_4
REMARK    3  A    between atoms: C_4  and  C_5
REMARK    4  A    between atoms: C_13  and  N_14
REMARK                            x       y       z     vdW  Elec       q    Type
REMARK                         _______ _______ _______ _____ _____    ______ ____
ROOT
ATOM      1  C   UNL     1      -8.943  -7.236  19.222  0.00  0.00    +0.000 A 
ATOM      2  C   UNL     1      -9.947  -6.780  18.355  0.00  0.00    +0.000 A 
ATOM      3  C   UNL     1     -10.123  -5.422  18.130  0.00  0.00    +0.000 A 
ATOM      4  C   UNL     1      -9.326  -4.499  18.806  0.00  0.00    +0.000 A 
ATOM      5  C   UNL     1      -8.301  -4.938  19.652  0.00  0.00    +0.000 A 
ATOM      6  C   UNL     1      -8.105  -6.317  19.842  0.00  0.00    +0.000 A 
ATOM      7  H   UNL     1     -10.615  -7.482  17.856  0.00  0.00    +0.000 HD
ATOM      8  H   UNL     1     -10.912  -5.099  17.464  0.00  0.00    +0.000 HD
ATOM      9  H   UNL     1      -7.646  -4.224  20.140  0.00  0.00    +0.000 HD
ATOM     10  H   UNL     1      -7.280  -6.627  20.485  0.00  0.00    +0.000 HD
ENDROOT
BRANCH   4  11
ATOM     11  N   UNL     1      -9.605  -3.152  18.547  0.00  0.00    +0.000 N 
ATOM     12  C   UNL     1     -10.683  -2.467  19.061  0.00  0.00    +0.000 C 
ATOM     13  O   UNL     1     -11.615  -3.072  19.598  0.00  0.00    +0.000 OA
ATOM     14  N   UNL     1     -10.613  -1.055  18.898  0.00  0.00    +0.000 N 
ATOM     15  C   UNL     1      -9.419  -0.414  18.258  0.00  0.00    +0.000 C 
ATOM     16  C   UNL     1      -9.650   0.637  17.168  0.00  0.00    +0.000 C 
ATOM     17  C   UNL     1     -10.108   1.977  17.702  0.00  0.00    +0.000 C 
ATOM     18  C   UNL     1     -11.454   1.820  18.361  0.00  0.00    +0.000 C 
ATOM     19  C   UNL     1     -11.344   1.180  19.716  0.00  0.00    +0.000 A 
ATOM     20  C   UNL     1     -11.405   2.004  20.848  0.00  0.00    +0.000 A 
ATOM     21  C   UNL     1     -11.689   1.464  22.094  0.00  0.00    +0.000 A 
ATOM     22  C   UNL     1     -11.990   0.115  22.188  0.00  0.00    +0.000 A 
ATOM     23  C   UNL     1     -11.791  -0.719  21.086  0.00  0.00    +0.000 A 
ATOM     24  C   UNL     1     -11.311  -0.212  19.867  0.00  0.00    +0.000 A 
ATOM     25  H   UNL     1      -9.353  -2.858  17.619  0.00  0.00    +0.000 HD
ATOM     26  H   UNL     1      -8.798  -1.158  17.760  0.00  0.00    +0.000 HD
ATOM     27  H   UNL     1      -8.779  -0.022  19.059  0.00  0.00    +0.000 HD
ATOM     28  H   UNL     1      -8.699   0.806  16.647  0.00  0.00    +0.000 HD
ATOM     29  H   UNL     1     -10.354   0.261  16.415  0.00  0.00    +0.000 HD
ATOM     30  H   UNL     1     -10.193   2.688  16.871  0.00  0.00    +0.000 HD
ATOM     31  H   UNL     1      -9.373   2.390  18.404  0.00  0.00    +0.000 HD
ATOM     32  H   UNL     1     -12.132   1.222  17.731  0.00  0.00    +0.000 HD
ATOM     33  H   UNL     1     -11.948   2.796  18.454  0.00  0.00    +0.000 HD
ATOM     34  H   UNL     1     -11.259   3.077  20.750  0.00  0.00    +0.000 HD
ATOM     35  H   UNL     1     -11.730   2.099  22.972  0.00  0.00    +0.000 HD
ATOM     36  H   UNL     1     -12.326  -0.311  23.129  0.00  0.00    +0.000 HD
ATOM     37  H   UNL     1     -11.971  -1.774  21.254  0.00  0.00    +0.000 HD
ENDBRANCH   4  11
BRANCH   1  39
ATOM     38  O   UNL     1      -8.865  -9.210  20.512  0.00  0.00    +0.000 OA
ATOM     39  C   UNL     1      -8.862  -8.718  19.388  0.00  0.00    +0.000 C 
ATOM     40  N   UNL     1      -8.742  -9.482  18.248  0.00  0.00    +0.000 N 
ATOM     41  H   UNL     1      -8.644  -9.053  17.340  0.00  0.00    +0.000 HD
BRANCH  40  42
ATOM     42  C   UNL     1      -8.508 -10.910  18.361  0.00  0.00    +0.000 C 
ATOM     43  H   UNL     1      -8.724 -11.220  19.391  0.00  0.00    +0.000 HD
ATOM     44  H   UNL     1      -7.436 -11.082  18.213  0.00  0.00    +0.000 HD
BRANCH  42  45
ATOM     45  C   UNL     1      -9.346 -11.762  17.395  0.00  0.00    +0.000 C 
ATOM     46  C   UNL     1      -9.592 -11.090  16.050  0.00  0.00    +0.000 C 
ATOM     47  C   UNL     1      -8.371 -11.485  15.260  0.00  0.00    +0.000 C 
ATOM     48  C   UNL     1      -8.106 -12.888  15.759  0.00  0.00    +0.000 C 
ATOM     49  O   UNL     1      -8.605 -12.964  17.099  0.00  0.00    +0.000 OA
ATOM     50  H   UNL     1     -10.295 -12.045  17.864  0.00  0.00    +0.000 HD
ATOM     51  H   UNL     1      -9.742 -10.008  16.108  0.00  0.00    +0.000 HD
ATOM     52  H   UNL     1     -10.481 -11.527  15.580  0.00  0.00    +0.000 HD
ATOM     53  H   UNL     1      -7.529 -10.830  15.515  0.00  0.00    +0.000 HD
ATOM     54  H   UNL     1      -8.515 -11.440  14.177  0.00  0.00    +0.000 HD
ATOM     55  H   UNL     1      -7.041 -13.140  15.751  0.00  0.00    +0.000 HD
ATOM     56  H   UNL     1      -8.643 -13.631  15.159  0.00  0.00    +0.000 HD
ENDBRANCH  42  45
ENDBRANCH  40  42
ENDBRANCH   1  39
TORSDOF 4
ENDMDL
