
 OpenBabel01112423113D

 54 57  0  0  1  0  0  0  0  0999 V2000
    2.8786    1.0817    2.5798 C   0  0  0  0  0  0  0  0  0  0  0  0
    2.4142    0.1032    1.5057 C   0  0  0  0  0  0  0  0  0  0  0  0
    3.2647    0.1734    0.2223 C   0  0  2  0  0  0  0  0  0  0  0  0
    2.6640   -0.6993   -0.8847 C   0  0  0  0  0  0  0  0  0  0  0  0
    4.7170   -0.1927    0.4667 C   0  0  0  0  0  0  0  0  0  0  0  0
    5.7148    0.7620    0.2272 C   0  0  0  0  0  0  0  0  0  0  0  0
    7.0564    0.4671    0.4481 C   0  0  0  0  0  0  0  0  0  0  0  0
    7.4122   -0.7649    0.9763 C   0  0  0  0  0  0  0  0  0  0  0  0
    8.7688   -0.9950    1.2418 N   0  0  0  0  0  0  0  0  0  0  0  0
    9.2030   -1.5704    2.4157 C   0  0  0  0  0  0  0  0  0  0  0  0
    8.4805   -2.0340    3.2991 O   0  0  0  0  0  0  0  0  0  0  0  0
   10.6999   -1.7800    2.4867 C   0  0  0  0  0  0  0  0  0  0  0  0
   11.5883   -0.7771    1.9166 N   0  0  0  0  0  0  0  0  0  0  0  0
   12.5396   -0.1739    2.7258 C   0  0  0  0  0  0  0  0  0  0  0  0
   12.4300    0.1335    3.8976 O   0  0  0  0  0  0  0  0  0  0  0  0
   13.7565   -0.1502    2.0225 N   0  0  0  0  0  0  0  0  0  0  0  0
   13.6918   -1.2195    1.0720 C   0  0  2  0  0  0  0  0  0  0  0  0
   13.9271   -2.5768    1.8040 C   0  0  0  0  0  0  0  0  0  0  0  0
   13.9498   -3.6836    0.7231 C   0  0  0  0  0  0  0  0  0  0  0  0
   14.9055   -2.8269   -0.1039 C   0  0  0  0  0  0  0  0  0  0  0  0
   15.9645   -3.3625   -0.8174 C   0  0  0  0  0  0  0  0  0  0  0  0
   16.8355   -2.4761   -1.4484 C   0  0  0  0  0  0  0  0  0  0  0  0
   16.5999   -1.0889   -1.4042 C   0  0  0  0  0  0  0  0  0  0  0  0
   15.5298   -0.5560   -0.6712 C   0  0  0  0  0  0  0  0  0  0  0  0
   14.7077   -1.4330    0.0155 C   0  0  0  0  0  0  0  0  0  0  0  0
   12.2158   -1.1303    0.7347 C   0  0  0  0  0  0  0  0  0  0  0  0
   11.6349   -1.4909   -0.2813 O   0  0  0  0  0  0  0  0  0  0  0  0
    6.4309   -1.7336    1.2260 C   0  0  0  0  0  0  0  0  0  0  0  0
    5.0905   -1.4495    0.9572 C   0  0  0  0  0  0  0  0  0  0  0  0
    2.2454    0.9936    3.4681 H   0  0  0  0  0  0  0  0  0  0  0  0
    2.8169    2.1138    2.2199 H   0  0  0  0  0  0  0  0  0  0  0  0
    3.9100    0.8874    2.8896 H   0  0  0  0  0  0  0  0  0  0  0  0
    1.3714    0.3377    1.2587 H   0  0  0  0  0  0  0  0  0  0  0  0
    2.4167   -0.9115    1.9209 H   0  0  0  0  0  0  0  0  0  0  0  0
    3.2245    1.2095   -0.1411 H   0  0  0  0  0  0  0  0  0  0  0  0
    2.6150   -1.7546   -0.5960 H   0  0  0  0  0  0  0  0  0  0  0  0
    3.2611   -0.6316   -1.8015 H   0  0  0  0  0  0  0  0  0  0  0  0
    1.6474   -0.3703   -1.1249 H   0  0  0  0  0  0  0  0  0  0  0  0
    5.4501    1.7608   -0.1115 H   0  0  0  0  0  0  0  0  0  0  0  0
    7.8062    1.2329    0.2867 H   0  0  0  0  0  0  0  0  0  0  0  0
    9.4481   -0.4585    0.7126 H   0  0  0  0  0  0  0  0  0  0  0  0
   10.8664   -2.7290    1.9462 H   0  0  0  0  0  0  0  0  0  0  0  0
   10.9802   -1.9703    3.5280 H   0  0  0  0  0  0  0  0  0  0  0  0
   14.5887    0.0241    2.5726 H   0  0  0  0  0  0  0  0  0  0  0  0
   13.2018   -2.7979    2.5978 H   0  0  0  0  0  0  0  0  0  0  0  0
   14.8914   -2.5604    2.3434 H   0  0  0  0  0  0  0  0  0  0  0  0
   12.8560   -3.7796    0.8906 H   0  0  0  0  0  0  0  0  0  0  0  0
   13.4904   -3.9296   -0.2601 H   0  0  0  0  0  0  0  0  0  0  0  0
   16.1458   -4.4295   -0.8265 H   0  0  0  0  0  0  0  0  0  0  0  0
   17.7054   -2.8691   -1.9672 H   0  0  0  0  0  0  0  0  0  0  0  0
   17.2904   -0.4270   -1.9207 H   0  0  0  0  0  0  0  0  0  0  0  0
   15.3965    0.5194   -0.6099 H   0  0  0  0  0  0  0  0  0  0  0  0
    6.6980   -2.7177    1.6118 H   0  0  0  0  0  0  0  0  0  0  0  0
    4.3448   -2.2220    1.1459 H   0  0  0  0  0  0  0  0  0  0  0  0
  1  2  1  0  0  0  0
  1 30  1  0  0  0  0
  1 31  1  0  0  0  0
  1 32  1  0  0  0  0
  2 33  1  0  0  0  0
  2 34  1  0  0  0  0
  3  5  1  0  0  0  0
  3  4  1  0  0  0  0
  3  2  1  0  0  0  0
  3 35  1  6  0  0  0
  4 36  1  0  0  0  0
  4 37  1  0  0  0  0
  4 38  1  0  0  0  0
  5  6  1  0  0  0  0
  5 29  2  0  0  0  0
  6  7  2  0  0  0  0
  6 39  1  0  0  0  0
  7  8  1  0  0  0  0
  7 40  1  0  0  0  0
  8  9  1  0  0  0  0
  8 28  2  0  0  0  0
  9 10  1  0  0  0  0
  9 41  1  0  0  0  0
 10 11  2  0  0  0  0
 10 12  1  0  0  0  0
 12 13  1  0  0  0  0
 12 42  1  0  0  0  0
 12 43  1  0  0  0  0
 13 14  1  0  0  0  0
 13 26  1  0  0  0  0
 14 15  2  0  0  0  0
 14 16  1  0  0  0  0
 16 17  1  0  0  0  0
 16 44  1  0  0  0  0
 17 18  1  0  0  0  0
 17 25  1  6  0  0  0
 17 26  1  0  0  0  0
 18 19  1  0  0  0  0
 18 45  1  0  0  0  0
 18 46  1  0  0  0  0
 19 20  1  0  0  0  0
 19 47  1  0  0  0  0
 19 48  1  0  0  0  0
 20 21  1  0  0  0  0
 20 25  2  0  0  0  0
 21 22  2  0  0  0  0
 21 49  1  0  0  0  0
 22 23  1  0  0  0  0
 22 50  1  0  0  0  0
 23 24  2  0  0  0  0
 23 51  1  0  0  0  0
 24 25  1  0  0  0  0
 24 52  1  0  0  0  0
 26 27  2  0  0  0  0
 28 29  1  0  0  0  0
 28 53  1  0  0  0  0
 29 54  1  0  0  0  0
M  END
$$$$
