MODEL 1
REMARK VINA RESULT:    -9.362      0.000      0.000
REMARK INTER + INTRA:         -12.476
REMARK INTER:                 -12.098
REMARK INTRA:                  -0.377
REMARK UNBOUND:                -0.377
REMARK  Name = 
REMARK  7 active torsions:
REMARK  status: ('A' for Active; 'I' for Inactive)
REMARK    1  A    between atoms: C_1  and  C_2
REMARK    2  A    between atoms: C_6  and  N_7
REMARK    3  A    between atoms: N_7  and  C_8
REMARK    4  A    between atoms: N_13  and  C_14
REMARK    5  A    between atoms: C_14  and  C_15
REMARK    6  A    between atoms: C_14  and  C_16
REMARK    7  A    between atoms: C_17  and  N_18
REMARK                            x       y       z     vdW  Elec       q    Type
REMARK                         _______ _______ _______ _____ _____    ______ ____
ROOT
ATOM      1  C   UNL     1      -9.864  -7.226  16.921  0.00  0.00    +0.000 A 
ATOM      2  N   UNL     1     -11.194  -7.165  17.043  0.00  0.00    +0.000 N 
ATOM      3  C   UNL     1     -11.768  -6.143  17.665  0.00  0.00    +0.000 A 
ATOM      4  N   UNL     1     -11.106  -5.081  18.141  0.00  0.00    +0.000 NA
ATOM      5  C   UNL     1      -9.765  -5.079  18.008  0.00  0.00    +0.000 A 
ATOM      6  N   UNL     1      -9.048  -3.951  18.425  0.00  0.00    +0.000 N 
ATOM      7  C   UNL     1      -9.078  -6.150  17.387  0.00  0.00    +0.000 A 
ATOM      8  H   UNL     1     -11.749  -7.933  16.682  0.00  0.00    +0.000 HD
ATOM      9  H   UNL     1     -12.841  -6.186  17.817  0.00  0.00    +0.000 HD
ATOM     10  H   UNL     1      -8.307  -4.175  19.082  0.00  0.00    +0.000 HD
ENDROOT
BRANCH   7  11
ATOM     11  N   UNL     1      -7.664  -6.251  17.377  0.00  0.00    +0.000 N 
ATOM     12  H   UNL     1      -7.310  -6.947  18.034  0.00  0.00    +0.000 HD
ATOM     13  H   UNL     1      -7.182  -5.364  17.533  0.00  0.00    +0.000 HD
ENDBRANCH   7  11
BRANCH   1  14
ATOM     14  N   UNL     1      -9.291  -8.387  16.337  0.00  0.00    +0.000 N 
ATOM     15  H   UNL     1      -8.429  -8.109  15.854  0.00  0.00    +0.000 HD
BRANCH  14  20
ATOM     16  C   UNL     1      -8.587 -13.443  15.578  0.00  0.00    +0.000 A 
ATOM     17  C   UNL     1      -8.748 -12.414  14.663  0.00  0.00    +0.000 A 
ATOM     18  C   UNL     1      -8.876 -11.108  15.135  0.00  0.00    +0.000 A 
ATOM     19  C   UNL     1      -8.822 -10.834  16.519  0.00  0.00    +0.000 A 
ATOM     20  C   UNL     1      -8.986  -9.548  17.120  0.00  0.00    +0.000 A 
ATOM     21  C   UNL     1      -8.771  -9.392  18.501  0.00  0.00    +0.000 A 
ATOM     22  C   UNL     1      -8.546 -10.495  19.305  0.00  0.00    +0.000 A 
ATOM     23  C   UNL     1      -8.481 -11.755  18.726  0.00  0.00    +0.000 A 
ATOM     24  C   UNL     1      -8.602 -11.948  17.356  0.00  0.00    +0.000 A 
ATOM     25  N   UNL     1      -8.503 -13.205  16.905  0.00  0.00    +0.000 NA
ATOM     26  H   UNL     1      -8.777 -12.625  13.593  0.00  0.00    +0.000 HD
ATOM     27  H   UNL     1      -9.007 -10.306  14.412  0.00  0.00    +0.000 HD
ATOM     28  H   UNL     1      -8.771  -8.414  18.976  0.00  0.00    +0.000 HD
ATOM     29  H   UNL     1      -8.399 -10.386  20.378  0.00  0.00    +0.000 HD
ATOM     30  H   UNL     1      -8.304 -12.621  19.352  0.00  0.00    +0.000 HD
BRANCH  16  31
ATOM     31  C   UNL     1      -8.481 -14.876  15.154  0.00  0.00    +0.000 C 
ATOM     32  H   UNL     1      -7.507 -15.303  15.410  0.00  0.00    +0.000 HD
ATOM     33  H   UNL     1      -8.600 -14.954  14.065  0.00  0.00    +0.000 HD
ATOM     34  H   UNL     1      -9.261 -15.468  15.642  0.00  0.00    +0.000 HD
ENDBRANCH  16  31
ENDBRANCH  14  20
ENDBRANCH   1  14
BRANCH   6  35
ATOM     35  C   UNL     1      -9.793  -2.728  18.783  0.00  0.00    +0.000 C 
ATOM     36  H   UNL     1     -10.867  -2.946  18.852  0.00  0.00    +0.000 HD
BRANCH  35  37
ATOM     37  C   UNL     1      -9.317  -2.109  20.096  0.00  0.00    +0.000 C 
ATOM     38  H   UNL     1      -8.448  -2.642  20.498  0.00  0.00    +0.000 HD
ATOM     39  H   UNL     1     -10.094  -2.113  20.865  0.00  0.00    +0.000 HD
ATOM     40  H   UNL     1      -9.019  -1.065  19.935  0.00  0.00    +0.000 HD
ENDBRANCH  35  37
BRANCH  35  41
ATOM     41  C   UNL     1      -9.606  -1.714  17.651  0.00  0.00    +0.000 C 
ATOM     42  H   UNL     1      -9.566  -2.212  16.676  0.00  0.00    +0.000 HD
ATOM     43  H   UNL     1      -8.676  -1.149  17.780  0.00  0.00    +0.000 HD
ATOM     44  H   UNL     1     -10.436  -1.001  17.625  0.00  0.00    +0.000 HD
ENDBRANCH  35  41
ENDBRANCH   6  35
TORSDOF 7
ENDMDL
MODEL 2
REMARK VINA RESULT:    -9.323      1.127      1.920
REMARK INTER + INTRA:         -12.426
REMARK INTER:                 -12.469
REMARK INTRA:                   0.043
REMARK UNBOUND:                -0.377
REMARK  Name = 
REMARK  7 active torsions:
REMARK  status: ('A' for Active; 'I' for Inactive)
REMARK    1  A    between atoms: C_1  and  C_2
REMARK    2  A    between atoms: C_6  and  N_7
REMARK    3  A    between atoms: N_7  and  C_8
REMARK    4  A    between atoms: N_13  and  C_14
REMARK    5  A    between atoms: C_14  and  C_15
REMARK    6  A    between atoms: C_14  and  C_16
REMARK    7  A    between atoms: C_17  and  N_18
REMARK                            x       y       z     vdW  Elec       q    Type
REMARK                         _______ _______ _______ _____ _____    ______ ____
ROOT
ATOM      1  C   UNL     1      -9.558  -6.754  17.805  0.00  0.00    +0.000 A 
ATOM      2  N   UNL     1      -8.338  -6.500  18.290  0.00  0.00    +0.000 N 
ATOM      3  C   UNL     1      -8.041  -5.301  18.773  0.00  0.00    +0.000 A 
ATOM      4  N   UNL     1      -8.917  -4.295  18.889  0.00  0.00    +0.000 NA
ATOM      5  C   UNL     1     -10.171  -4.514  18.447  0.00  0.00    +0.000 A 
ATOM      6  N   UNL     1     -11.132  -3.513  18.622  0.00  0.00    +0.000 N 
ATOM      7  C   UNL     1     -10.554  -5.757  17.887  0.00  0.00    +0.000 A 
ATOM      8  H   UNL     1      -7.638  -7.233  18.248  0.00  0.00    +0.000 HD
ATOM      9  H   UNL     1      -7.013  -5.119  19.071  0.00  0.00    +0.000 HD
ATOM     10  H   UNL     1     -11.595  -3.254  17.755  0.00  0.00    +0.000 HD
ENDROOT
BRANCH   7  11
ATOM     11  N   UNL     1     -11.814  -5.965  17.270  0.00  0.00    +0.000 N 
ATOM     12  H   UNL     1     -12.592  -5.923  17.930  0.00  0.00    +0.000 HD
ATOM     13  H   UNL     1     -11.876  -6.829  16.730  0.00  0.00    +0.000 HD
ENDBRANCH   7  11
BRANCH   1  14
ATOM     14  N   UNL     1      -9.799  -8.020  17.208  0.00  0.00    +0.000 N 
ATOM     15  H   UNL     1      -9.498  -7.974  16.229  0.00  0.00    +0.000 HD
BRANCH  14  20
ATOM     16  C   UNL     1      -8.698 -12.809  15.631  0.00  0.00    +0.000 A 
ATOM     17  C   UNL     1      -9.102 -11.699  14.906  0.00  0.00    +0.000 A 
ATOM     18  C   UNL     1      -9.292 -10.491  15.577  0.00  0.00    +0.000 A 
ATOM     19  C   UNL     1      -9.056 -10.393  16.966  0.00  0.00    +0.000 A 
ATOM     20  C   UNL     1      -9.259  -9.226  17.765  0.00  0.00    +0.000 A 
ATOM     21  C   UNL     1      -8.853  -9.224  19.111  0.00  0.00    +0.000 A 
ATOM     22  C   UNL     1      -8.395 -10.385  19.708  0.00  0.00    +0.000 A 
ATOM     23  C   UNL     1      -8.288 -11.541  18.947  0.00  0.00    +0.000 A 
ATOM     24  C   UNL     1      -8.596 -11.569  17.594  0.00  0.00    +0.000 A 
ATOM     25  N   UNL     1      -8.437 -12.736  16.955  0.00  0.00    +0.000 NA
ATOM     26  H   UNL     1      -9.272 -11.772  13.831  0.00  0.00    +0.000 HD
ATOM     27  H   UNL     1      -9.614  -9.625  15.004  0.00  0.00    +0.000 HD
ATOM     28  H   UNL     1      -8.883  -8.323  19.720  0.00  0.00    +0.000 HD
ATOM     29  H   UNL     1      -8.098 -10.398  20.754  0.00  0.00    +0.000 HD
ATOM     30  H   UNL     1      -7.928 -12.453  19.410  0.00  0.00    +0.000 HD
BRANCH  16  31
ATOM     31  C   UNL     1      -8.509 -14.151  14.992  0.00  0.00    +0.000 C 
ATOM     32  H   UNL     1      -9.111 -14.922  15.482  0.00  0.00    +0.000 HD
ATOM     33  H   UNL     1      -7.458 -14.457  15.065  0.00  0.00    +0.000 HD
ATOM     34  H   UNL     1      -8.795 -14.105  13.936  0.00  0.00    +0.000 HD
ENDBRANCH  16  31
ENDBRANCH  14  20
ENDBRANCH   1  14
BRANCH   6  35
ATOM     35  C   UNL     1     -10.803  -2.354  19.474  0.00  0.00    +0.000 C 
ATOM     36  H   UNL     1      -9.833  -2.508  19.964  0.00  0.00    +0.000 HD
BRANCH  35  37
ATOM     37  C   UNL     1     -10.775  -1.038  18.697  0.00  0.00    +0.000 C 
ATOM     38  H   UNL     1      -9.751  -0.749  18.435  0.00  0.00    +0.000 HD
ATOM     39  H   UNL     1     -11.221  -0.213  19.258  0.00  0.00    +0.000 HD
ATOM     40  H   UNL     1     -11.339  -1.140  17.760  0.00  0.00    +0.000 HD
ENDBRANCH  35  37
BRANCH  35  41
ATOM     41  C   UNL     1     -11.861  -2.264  20.577  0.00  0.00    +0.000 C 
ATOM     42  H   UNL     1     -11.437  -1.851  21.500  0.00  0.00    +0.000 HD
ATOM     43  H   UNL     1     -12.273  -3.253  20.807  0.00  0.00    +0.000 HD
ATOM     44  H   UNL     1     -12.689  -1.615  20.273  0.00  0.00    +0.000 HD
ENDBRANCH  35  41
ENDBRANCH   6  35
TORSDOF 7
ENDMDL
MODEL 3
REMARK VINA RESULT:    -9.240      2.102      2.658
REMARK INTER + INTRA:         -12.318
REMARK INTER:                 -11.946
REMARK INTRA:                  -0.372
REMARK UNBOUND:                -0.377
REMARK  Name = 
REMARK  7 active torsions:
REMARK  status: ('A' for Active; 'I' for Inactive)
REMARK    1  A    between atoms: C_1  and  C_2
REMARK    2  A    between atoms: C_6  and  N_7
REMARK    3  A    between atoms: N_7  and  C_8
REMARK    4  A    between atoms: N_13  and  C_14
REMARK    5  A    between atoms: C_14  and  C_15
REMARK    6  A    between atoms: C_14  and  C_16
REMARK    7  A    between atoms: C_17  and  N_18
REMARK                            x       y       z     vdW  Elec       q    Type
REMARK                         _______ _______ _______ _____ _____    ______ ____
ROOT
ATOM      1  C   UNL     1     -11.195  -5.847  16.162  0.00  0.00    +0.000 A 
ATOM      2  N   UNL     1     -12.120  -5.319  16.972  0.00  0.00    +0.000 N 
ATOM      3  C   UNL     1     -12.158  -4.011  17.190  0.00  0.00    +0.000 A 
ATOM      4  N   UNL     1     -11.360  -3.122  16.587  0.00  0.00    +0.000 NA
ATOM      5  C   UNL     1     -10.435  -3.602  15.732  0.00  0.00    +0.000 A 
ATOM      6  N   UNL     1      -9.636  -2.696  15.026  0.00  0.00    +0.000 N 
ATOM      7  C   UNL     1     -10.311  -4.988  15.474  0.00  0.00    +0.000 A 
ATOM      8  H   UNL     1     -12.766  -5.945  17.441  0.00  0.00    +0.000 HD
ATOM      9  H   UNL     1     -12.868  -3.645  17.925  0.00  0.00    +0.000 HD
ATOM     10  H   UNL     1      -8.643  -2.874  15.140  0.00  0.00    +0.000 HD
ENDROOT
BRANCH   7  11
ATOM     11  N   UNL     1      -9.249  -5.534  14.708  0.00  0.00    +0.000 N 
ATOM     12  H   UNL     1      -9.219  -5.170  13.755  0.00  0.00    +0.000 HD
ATOM     13  H   UNL     1      -9.238  -6.554  14.680  0.00  0.00    +0.000 HD
ENDBRANCH   7  11
BRANCH   1  14
ATOM     14  N   UNL     1     -11.131  -7.260  16.038  0.00  0.00    +0.000 N 
ATOM     15  H   UNL     1     -10.831  -7.483  15.083  0.00  0.00    +0.000 HD
BRANCH  14  20
ATOM     16  C   UNL     1      -8.742 -11.834  15.997  0.00  0.00    +0.000 A 
ATOM     17  C   UNL     1      -9.365 -11.141  14.971  0.00  0.00    +0.000 A 
ATOM     18  C   UNL     1      -9.901  -9.882  15.240  0.00  0.00    +0.000 A 
ATOM     19  C   UNL     1      -9.794  -9.313  16.527  0.00  0.00    +0.000 A 
ATOM     20  C   UNL     1     -10.342  -8.056  16.931  0.00  0.00    +0.000 A 
ATOM     21  C   UNL     1     -10.043  -7.543  18.206  0.00  0.00    +0.000 A 
ATOM     22  C   UNL     1      -9.346  -8.307  19.124  0.00  0.00    +0.000 A 
ATOM     23  C   UNL     1      -8.897  -9.568  18.756  0.00  0.00    +0.000 A 
ATOM     24  C   UNL     1      -9.094 -10.081  17.481  0.00  0.00    +0.000 A 
ATOM     25  N   UNL     1      -8.599 -11.301  17.230  0.00  0.00    +0.000 NA
ATOM     26  H   UNL     1      -9.436 -11.575  13.973  0.00  0.00    +0.000 HD
ATOM     27  H   UNL     1     -10.394  -9.345  14.432  0.00  0.00    +0.000 HD
ATOM     28  H   UNL     1     -10.343  -6.542  18.508  0.00  0.00    +0.000 HD
ATOM     29  H   UNL     1      -9.129  -7.927  20.120  0.00  0.00    +0.000 HD
ATOM     30  H   UNL     1      -8.349 -10.170  19.472  0.00  0.00    +0.000 HD
BRANCH  16  31
ATOM     31  C   UNL     1      -8.174 -13.207  15.799  0.00  0.00    +0.000 C 
ATOM     32  H   UNL     1      -8.342 -13.844  16.673  0.00  0.00    +0.000 HD
ATOM     33  H   UNL     1      -7.091 -13.145  15.638  0.00  0.00    +0.000 HD
ATOM     34  H   UNL     1      -8.638 -13.681  14.928  0.00  0.00    +0.000 HD
ENDBRANCH  16  31
ENDBRANCH  14  20
ENDBRANCH   1  14
BRANCH   6  35
ATOM     35  C   UNL     1      -9.979  -1.261  15.070  0.00  0.00    +0.000 C 
ATOM     36  H   UNL     1     -10.752  -1.080  15.829  0.00  0.00    +0.000 HD
BRANCH  35  37
ATOM     37  C   UNL     1      -8.769  -0.373  15.358  0.00  0.00    +0.000 C 
ATOM     38  H   UNL     1      -7.850  -0.963  15.445  0.00  0.00    +0.000 HD
ATOM     39  H   UNL     1      -8.884   0.201  16.281  0.00  0.00    +0.000 HD
ATOM     40  H   UNL     1      -8.624   0.345  14.540  0.00  0.00    +0.000 HD
ENDBRANCH  35  37
BRANCH  35  41
ATOM     41  C   UNL     1     -10.574  -0.876  13.713  0.00  0.00    +0.000 C 
ATOM     42  H   UNL     1     -10.392  -1.656  12.965  0.00  0.00    +0.000 HD
ATOM     43  H   UNL     1     -10.135   0.057  13.343  0.00  0.00    +0.000 HD
ATOM     44  H   UNL     1     -11.657  -0.736  13.787  0.00  0.00    +0.000 HD
ENDBRANCH  35  41
ENDBRANCH   6  35
TORSDOF 7
ENDMDL
MODEL 4
REMARK VINA RESULT:    -9.057      1.390      2.693
REMARK INTER + INTRA:         -12.082
REMARK INTER:                 -11.774
REMARK INTRA:                  -0.307
REMARK UNBOUND:                -0.377
REMARK  Name = 
REMARK  7 active torsions:
REMARK  status: ('A' for Active; 'I' for Inactive)
REMARK    1  A    between atoms: C_1  and  C_2
REMARK    2  A    between atoms: C_6  and  N_7
REMARK    3  A    between atoms: N_7  and  C_8
REMARK    4  A    between atoms: N_13  and  C_14
REMARK    5  A    between atoms: C_14  and  C_15
REMARK    6  A    between atoms: C_14  and  C_16
REMARK    7  A    between atoms: C_17  and  N_18
REMARK                            x       y       z     vdW  Elec       q    Type
REMARK                         _______ _______ _______ _____ _____    ______ ____
ROOT
ATOM      1  C   UNL     1      -9.091  -7.404  18.506  0.00  0.00    +0.000 A 
ATOM      2  N   UNL     1      -7.867  -6.918  18.739  0.00  0.00    +0.000 N 
ATOM      3  C   UNL     1      -7.677  -5.613  18.886  0.00  0.00    +0.000 A 
ATOM      4  N   UNL     1      -8.658  -4.703  18.894  0.00  0.00    +0.000 NA
ATOM      5  C   UNL     1      -9.915  -5.149  18.700  0.00  0.00    +0.000 A 
ATOM      6  N   UNL     1     -10.973  -4.236  18.778  0.00  0.00    +0.000 N 
ATOM      7  C   UNL     1     -10.193  -6.522  18.501  0.00  0.00    +0.000 A 
ATOM      8  H   UNL     1      -7.086  -7.565  18.765  0.00  0.00    +0.000 HD
ATOM      9  H   UNL     1      -6.654  -5.262  18.982  0.00  0.00    +0.000 HD
ATOM     10  H   UNL     1     -11.564  -4.245  17.952  0.00  0.00    +0.000 HD
ENDROOT
BRANCH   7  11
ATOM     11  N   UNL     1     -11.478  -7.000  18.136  0.00  0.00    +0.000 N 
ATOM     12  H   UNL     1     -11.472  -7.531  17.265  0.00  0.00    +0.000 HD
ATOM     13  H   UNL     1     -12.192  -6.272  18.083  0.00  0.00    +0.000 HD
ENDBRANCH   7  11
BRANCH   1  14
ATOM     14  N   UNL     1      -9.230  -8.795  18.256  0.00  0.00    +0.000 N 
ATOM     15  H   UNL     1     -10.129  -9.100  18.646  0.00  0.00    +0.000 HD
BRANCH  14  20
ATOM     16  C   UNL     1      -8.654 -13.414  16.028  0.00  0.00    +0.000 A 
ATOM     17  C   UNL     1      -8.867 -13.081  17.356  0.00  0.00    +0.000 A 
ATOM     18  C   UNL     1      -9.038 -11.739  17.694  0.00  0.00    +0.000 A 
ATOM     19  C   UNL     1      -9.016 -10.738  16.700  0.00  0.00    +0.000 A 
ATOM     20  C   UNL     1      -9.134  -9.332  16.931  0.00  0.00    +0.000 A 
ATOM     21  C   UNL     1      -9.235  -8.453  15.838  0.00  0.00    +0.000 A 
ATOM     22  C   UNL     1      -9.075  -8.918  14.545  0.00  0.00    +0.000 A 
ATOM     23  C   UNL     1      -8.867 -10.274  14.334  0.00  0.00    +0.000 A 
ATOM     24  C   UNL     1      -8.845 -11.192  15.375  0.00  0.00    +0.000 A 
ATOM     25  N   UNL     1      -8.657 -12.479  15.052  0.00  0.00    +0.000 NA
ATOM     26  H   UNL     1      -8.897 -13.858  18.123  0.00  0.00    +0.000 HD
ATOM     27  H   UNL     1      -9.200 -11.485  18.739  0.00  0.00    +0.000 HD
ATOM     28  H   UNL     1      -9.442  -7.393  15.970  0.00  0.00    +0.000 HD
ATOM     29  H   UNL     1      -9.131  -8.242  13.695  0.00  0.00    +0.000 HD
ATOM     30  H   UNL     1      -8.743 -10.644  13.322  0.00  0.00    +0.000 HD
BRANCH  16  31
ATOM     31  C   UNL     1      -8.423 -14.828  15.588  0.00  0.00    +0.000 C 
ATOM     32  H   UNL     1      -8.921 -15.043  14.638  0.00  0.00    +0.000 HD
ATOM     33  H   UNL     1      -8.824 -15.523  16.336  0.00  0.00    +0.000 HD
ATOM     34  H   UNL     1      -7.350 -15.011  15.470  0.00  0.00    +0.000 HD
ENDBRANCH  16  31
ENDBRANCH  14  20
ENDBRANCH   1  14
BRANCH   6  35
ATOM     35  C   UNL     1     -10.703  -2.877  19.286  0.00  0.00    +0.000 C 
ATOM     36  H   UNL     1      -9.775  -2.870  19.873  0.00  0.00    +0.000 HD
BRANCH  35  37
ATOM     37  C   UNL     1     -10.603  -1.838  18.169  0.00  0.00    +0.000 C 
ATOM     38  H   UNL     1     -11.422  -1.944  17.449  0.00  0.00    +0.000 HD
ATOM     39  H   UNL     1      -9.663  -1.909  17.617  0.00  0.00    +0.000 HD
ATOM     40  H   UNL     1     -10.662  -0.825  18.589  0.00  0.00    +0.000 HD
ENDBRANCH  35  37
BRANCH  35  41
ATOM     41  C   UNL     1     -11.844  -2.491  20.231  0.00  0.00    +0.000 C 
ATOM     42  H   UNL     1     -12.812  -2.527  19.719  0.00  0.00    +0.000 HD
ATOM     43  H   UNL     1     -11.705  -1.477  20.621  0.00  0.00    +0.000 HD
ATOM     44  H   UNL     1     -11.895  -3.178  21.082  0.00  0.00    +0.000 HD
ENDBRANCH  35  41
ENDBRANCH   6  35
TORSDOF 7
ENDMDL
MODEL 5
REMARK VINA RESULT:    -8.985      1.787      2.614
REMARK INTER + INTRA:         -11.989
REMARK INTER:                 -11.434
REMARK INTRA:                  -0.555
REMARK UNBOUND:                -0.377
REMARK  Name = 
REMARK  7 active torsions:
REMARK  status: ('A' for Active; 'I' for Inactive)
REMARK    1  A    between atoms: C_1  and  C_2
REMARK    2  A    between atoms: C_6  and  N_7
REMARK    3  A    between atoms: N_7  and  C_8
REMARK    4  A    between atoms: N_13  and  C_14
REMARK    5  A    between atoms: C_14  and  C_15
REMARK    6  A    between atoms: C_14  and  C_16
REMARK    7  A    between atoms: C_17  and  N_18
REMARK                            x       y       z     vdW  Elec       q    Type
REMARK                         _______ _______ _______ _____ _____    ______ ____
ROOT
ATOM      1  C   UNL     1     -11.052  -5.879  16.753  0.00  0.00    +0.000 A 
ATOM      2  N   UNL     1     -10.644  -5.871  15.479  0.00  0.00    +0.000 N 
ATOM      3  C   UNL     1     -10.376  -4.727  14.864  0.00  0.00    +0.000 A 
ATOM      4  N   UNL     1     -10.410  -3.526  15.454  0.00  0.00    +0.000 NA
ATOM      5  C   UNL     1     -10.780  -3.485  16.749  0.00  0.00    +0.000 A 
ATOM      6  N   UNL     1     -10.753  -2.256  17.419  0.00  0.00    +0.000 N 
ATOM      7  C   UNL     1     -11.115  -4.661  17.463  0.00  0.00    +0.000 A 
ATOM      8  H   UNL     1     -10.579  -6.756  14.986  0.00  0.00    +0.000 HD
ATOM      9  H   UNL     1     -10.137  -4.769  13.806  0.00  0.00    +0.000 HD
ATOM     10  H   UNL     1     -11.640  -2.027  17.859  0.00  0.00    +0.000 HD
ENDROOT
BRANCH   7  11
ATOM     11  N   UNL     1     -11.659  -4.634  18.773  0.00  0.00    +0.000 N 
ATOM     12  H   UNL     1     -11.184  -5.271  19.414  0.00  0.00    +0.000 HD
ATOM     13  H   UNL     1     -12.664  -4.807  18.809  0.00  0.00    +0.000 HD
ENDBRANCH   7  11
BRANCH   1  14
ATOM     14  N   UNL     1     -11.422  -7.119  17.337  0.00  0.00    +0.000 N 
ATOM     15  H   UNL     1     -11.972  -7.644  16.649  0.00  0.00    +0.000 HD
BRANCH  14  20
ATOM     16  C   UNL     1      -8.937 -11.402  15.884  0.00  0.00    +0.000 A 
ATOM     17  C   UNL     1      -9.778 -10.567  15.165  0.00  0.00    +0.000 A 
ATOM     18  C   UNL     1     -10.290  -9.430  15.789  0.00  0.00    +0.000 A 
ATOM     19  C   UNL     1      -9.945  -9.122  17.122  0.00  0.00    +0.000 A 
ATOM     20  C   UNL     1     -10.442  -8.015  17.877  0.00  0.00    +0.000 A 
ATOM     21  C   UNL     1      -9.909  -7.745  19.150  0.00  0.00    +0.000 A 
ATOM     22  C   UNL     1      -9.017  -8.622  19.738  0.00  0.00    +0.000 A 
ATOM     23  C   UNL     1      -8.609  -9.747  19.035  0.00  0.00    +0.000 A 
ATOM     24  C   UNL     1      -9.041 -10.010  17.742  0.00  0.00    +0.000 A 
ATOM     25  N   UNL     1      -8.567 -11.116  17.152  0.00  0.00    +0.000 NA
ATOM     26  H   UNL     1     -10.034 -10.799  14.130  0.00  0.00    +0.000 HD
ATOM     27  H   UNL     1     -10.954  -8.782  15.220  0.00  0.00    +0.000 HD
ATOM     28  H   UNL     1     -10.176  -6.848  19.706  0.00  0.00    +0.000 HD
ATOM     29  H   UNL     1      -8.615  -8.432  20.731  0.00  0.00    +0.000 HD
ATOM     30  H   UNL     1      -7.908 -10.437  19.491  0.00  0.00    +0.000 HD
BRANCH  16  31
ATOM     31  C   UNL     1      -8.376 -12.662  15.299  0.00  0.00    +0.000 C 
ATOM     32  H   UNL     1      -7.502 -12.463  14.671  0.00  0.00    +0.000 HD
ATOM     33  H   UNL     1      -9.130 -13.152  14.670  0.00  0.00    +0.000 HD
ATOM     34  H   UNL     1      -8.080 -13.347  16.101  0.00  0.00    +0.000 HD
ENDBRANCH  16  31
ENDBRANCH  14  20
ENDBRANCH   1  14
BRANCH   6  35
ATOM     35  C   UNL     1     -10.115  -1.101  16.759  0.00  0.00    +0.000 C 
ATOM     36  H   UNL     1      -9.419  -1.446  15.983  0.00  0.00    +0.000 HD
BRANCH  35  37
ATOM     37  C   UNL     1     -11.130  -0.140  16.139  0.00  0.00    +0.000 C 
ATOM     38  H   UNL     1     -11.116  -0.194  15.045  0.00  0.00    +0.000 HD
ATOM     39  H   UNL     1     -10.947   0.899  16.423  0.00  0.00    +0.000 HD
ATOM     40  H   UNL     1     -12.144  -0.398  16.470  0.00  0.00    +0.000 HD
ENDBRANCH  35  37
BRANCH  35  41
ATOM     41  C   UNL     1      -9.291  -0.353  17.810  0.00  0.00    +0.000 C 
ATOM     42  H   UNL     1      -8.231  -0.626  17.750  0.00  0.00    +0.000 HD
ATOM     43  H   UNL     1      -9.642  -0.585  18.822  0.00  0.00    +0.000 HD
ATOM     44  H   UNL     1      -9.362   0.729  17.666  0.00  0.00    +0.000 HD
ENDBRANCH  35  41
ENDBRANCH   6  35
TORSDOF 7
ENDMDL
MODEL 6
REMARK VINA RESULT:    -8.904      1.459      2.089
REMARK INTER + INTRA:         -11.884
REMARK INTER:                 -11.953
REMARK INTRA:                   0.069
REMARK UNBOUND:                -0.377
REMARK  Name = 
REMARK  7 active torsions:
REMARK  status: ('A' for Active; 'I' for Inactive)
REMARK    1  A    between atoms: C_1  and  C_2
REMARK    2  A    between atoms: C_6  and  N_7
REMARK    3  A    between atoms: N_7  and  C_8
REMARK    4  A    between atoms: N_13  and  C_14
REMARK    5  A    between atoms: C_14  and  C_15
REMARK    6  A    between atoms: C_14  and  C_16
REMARK    7  A    between atoms: C_17  and  N_18
REMARK                            x       y       z     vdW  Elec       q    Type
REMARK                         _______ _______ _______ _____ _____    ______ ____
ROOT
ATOM      1  C   UNL     1     -10.155  -7.329  15.827  0.00  0.00    +0.000 A 
ATOM      2  N   UNL     1      -9.316  -6.634  15.051  0.00  0.00    +0.000 N 
ATOM      3  C   UNL     1      -9.334  -5.308  15.058  0.00  0.00    +0.000 A 
ATOM      4  N   UNL     1     -10.105  -4.567  15.864  0.00  0.00    +0.000 NA
ATOM      5  C   UNL     1     -10.942  -5.223  16.691  0.00  0.00    +0.000 A 
ATOM      6  N   UNL     1     -11.706  -4.483  17.602  0.00  0.00    +0.000 N 
ATOM      7  C   UNL     1     -11.005  -6.637  16.717  0.00  0.00    +0.000 A 
ATOM      8  H   UNL     1      -8.693  -7.145  14.434  0.00  0.00    +0.000 HD
ATOM      9  H   UNL     1      -8.698  -4.794  14.345  0.00  0.00    +0.000 HD
ATOM     10  H   UNL     1     -12.700  -4.681  17.535  0.00  0.00    +0.000 HD
ENDROOT
BRANCH   7  11
ATOM     11  N   UNL     1     -11.984  -7.348  17.457  0.00  0.00    +0.000 N 
ATOM     12  H   UNL     1     -11.584  -8.083  18.041  0.00  0.00    +0.000 HD
ATOM     13  H   UNL     1     -12.732  -7.742  16.885  0.00  0.00    +0.000 HD
ENDBRANCH   7  11
BRANCH   1  14
ATOM     14  N   UNL     1     -10.169  -8.745  15.712  0.00  0.00    +0.000 N 
ATOM     15  H   UNL     1      -9.771  -8.994  14.799  0.00  0.00    +0.000 HD
BRANCH  14  20
ATOM     16  C   UNL     1      -8.483 -13.609  16.082  0.00  0.00    +0.000 A 
ATOM     17  C   UNL     1      -8.952 -12.905  14.984  0.00  0.00    +0.000 A 
ATOM     18  C   UNL     1      -9.307 -11.566  15.145  0.00  0.00    +0.000 A 
ATOM     19  C   UNL     1      -9.172 -10.931  16.398  0.00  0.00    +0.000 A 
ATOM     20  C   UNL     1      -9.545  -9.583  16.693  0.00  0.00    +0.000 A 
ATOM     21  C   UNL     1      -9.228  -9.031  17.947  0.00  0.00    +0.000 A 
ATOM     22  C   UNL     1      -8.692  -9.822  18.947  0.00  0.00    +0.000 A 
ATOM     23  C   UNL     1      -8.419 -11.157  18.682  0.00  0.00    +0.000 A 
ATOM     24  C   UNL     1      -8.635 -11.724  17.433  0.00  0.00    +0.000 A 
ATOM     25  N   UNL     1      -8.316 -13.017  17.286  0.00  0.00    +0.000 NA
ATOM     26  H   UNL     1      -9.044 -13.393  14.012  0.00  0.00    +0.000 HD
ATOM     27  H   UNL     1      -9.680 -11.021  14.280  0.00  0.00    +0.000 HD
ATOM     28  H   UNL     1      -9.389  -7.978  18.170  0.00  0.00    +0.000 HD
ATOM     29  H   UNL     1      -8.463  -9.409  19.927  0.00  0.00    +0.000 HD
ATOM     30  H   UNL     1      -7.998 -11.781  19.462  0.00  0.00    +0.000 HD
BRANCH  16  31
ATOM     31  C   UNL     1      -8.117 -15.059  16.001  0.00  0.00    +0.000 C 
ATOM     32  H   UNL     1      -7.876 -15.472  16.985  0.00  0.00    +0.000 HD
ATOM     33  H   UNL     1      -7.234 -15.188  15.363  0.00  0.00    +0.000 HD
ATOM     34  H   UNL     1      -8.949 -15.631  15.577  0.00  0.00    +0.000 HD
ENDBRANCH  16  31
ENDBRANCH  14  20
ENDBRANCH   1  14
BRANCH   6  35
ATOM     35  C   UNL     1     -11.409  -3.049  17.778  0.00  0.00    +0.000 C 
ATOM     36  H   UNL     1     -10.361  -2.845  17.520  0.00  0.00    +0.000 HD
BRANCH  35  37
ATOM     37  C   UNL     1     -12.320  -2.150  16.942  0.00  0.00    +0.000 C 
ATOM     38  H   UNL     1     -12.518  -1.198  17.448  0.00  0.00    +0.000 HD
ATOM     39  H   UNL     1     -13.284  -2.618  16.727  0.00  0.00    +0.000 HD
ATOM     40  H   UNL     1     -11.844  -1.920  15.980  0.00  0.00    +0.000 HD
ENDBRANCH  35  37
BRANCH  35  41
ATOM     41  C   UNL     1     -11.588  -2.708  19.260  0.00  0.00    +0.000 C 
ATOM     42  H   UNL     1     -12.249  -3.429  19.754  0.00  0.00    +0.000 HD
ATOM     43  H   UNL     1     -12.023  -1.710  19.383  0.00  0.00    +0.000 HD
ATOM     44  H   UNL     1     -10.627  -2.727  19.784  0.00  0.00    +0.000 HD
ENDBRANCH  35  41
ENDBRANCH   6  35
TORSDOF 7
ENDMDL
MODEL 7
REMARK VINA RESULT:    -8.566      1.426      2.430
REMARK INTER + INTRA:         -11.447
REMARK INTER:                 -11.465
REMARK INTRA:                   0.018
REMARK UNBOUND:                -0.377
REMARK  Name = 
REMARK  7 active torsions:
REMARK  status: ('A' for Active; 'I' for Inactive)
REMARK    1  A    between atoms: C_1  and  C_2
REMARK    2  A    between atoms: C_6  and  N_7
REMARK    3  A    between atoms: N_7  and  C_8
REMARK    4  A    between atoms: N_13  and  C_14
REMARK    5  A    between atoms: C_14  and  C_15
REMARK    6  A    between atoms: C_14  and  C_16
REMARK    7  A    between atoms: C_17  and  N_18
REMARK                            x       y       z     vdW  Elec       q    Type
REMARK                         _______ _______ _______ _____ _____    ______ ____
ROOT
ATOM      1  C   UNL     1      -9.451  -6.603  17.216  0.00  0.00    +0.000 A 
ATOM      2  N   UNL     1     -10.478  -6.571  16.360  0.00  0.00    +0.000 N 
ATOM      3  C   UNL     1     -11.461  -5.695  16.520  0.00  0.00    +0.000 A 
ATOM      4  N   UNL     1     -11.483  -4.748  17.466  0.00  0.00    +0.000 NA
ATOM      5  C   UNL     1     -10.450  -4.716  18.331  0.00  0.00    +0.000 A 
ATOM      6  N   UNL     1     -10.400  -3.691  19.283  0.00  0.00    +0.000 N 
ATOM      7  C   UNL     1      -9.380  -5.640  18.245  0.00  0.00    +0.000 A 
ATOM      8  H   UNL     1     -10.504  -7.254  15.610  0.00  0.00    +0.000 HD
ATOM      9  H   UNL     1     -12.314  -5.771  15.854  0.00  0.00    +0.000 HD
ATOM     10  H   UNL     1     -10.307  -4.040  20.233  0.00  0.00    +0.000 HD
ENDROOT
BRANCH   7  11
ATOM     11  N   UNL     1      -8.366  -5.732  19.232  0.00  0.00    +0.000 N 
ATOM     12  H   UNL     1      -7.556  -5.147  19.026  0.00  0.00    +0.000 HD
ATOM     13  H   UNL     1      -8.054  -6.686  19.420  0.00  0.00    +0.000 HD
ENDBRANCH   7  11
BRANCH   1  14
ATOM     14  N   UNL     1      -8.474  -7.623  17.063  0.00  0.00    +0.000 N 
ATOM     15  H   UNL     1      -8.113  -7.861  17.993  0.00  0.00    +0.000 HD
BRANCH  14  20
ATOM     16  C   UNL     1      -8.724 -12.648  18.209  0.00  0.00    +0.000 A 
ATOM     17  C   UNL     1      -8.544 -11.550  19.035  0.00  0.00    +0.000 A 
ATOM     18  C   UNL     1      -8.562 -10.275  18.470  0.00  0.00    +0.000 A 
ATOM     19  C   UNL     1      -8.779 -10.102  17.086  0.00  0.00    +0.000 A 
ATOM     20  C   UNL     1      -8.773  -8.853  16.392  0.00  0.00    +0.000 A 
ATOM     21  C   UNL     1      -9.142  -8.809  15.036  0.00  0.00    +0.000 A 
ATOM     22  C   UNL     1      -9.368  -9.977  14.331  0.00  0.00    +0.000 A 
ATOM     23  C   UNL     1      -9.281 -11.195  14.991  0.00  0.00    +0.000 A 
ATOM     24  C   UNL     1      -9.005 -11.283  16.349  0.00  0.00    +0.000 A 
ATOM     25  N   UNL     1      -8.964 -12.510  16.886  0.00  0.00    +0.000 NA
ATOM     26  H   UNL     1      -8.389 -11.683  20.106  0.00  0.00    +0.000 HD
ATOM     27  H   UNL     1      -8.414  -9.417  19.123  0.00  0.00    +0.000 HD
ATOM     28  H   UNL     1      -9.262  -7.868  14.503  0.00  0.00    +0.000 HD
ATOM     29  H   UNL     1      -9.634  -9.953  13.276  0.00  0.00    +0.000 HD
ATOM     30  H   UNL     1      -9.459 -12.113  14.444  0.00  0.00    +0.000 HD
BRANCH  16  31
ATOM     31  C   UNL     1      -8.681 -14.052  18.731  0.00  0.00    +0.000 C 
ATOM     32  H   UNL     1      -7.654 -14.410  18.846  0.00  0.00    +0.000 HD
ATOM     33  H   UNL     1      -9.190 -14.728  18.031  0.00  0.00    +0.000 HD
ATOM     34  H   UNL     1      -9.180 -14.104  19.704  0.00  0.00    +0.000 HD
ENDBRANCH  16  31
ENDBRANCH  14  20
ENDBRANCH   1  14
BRANCH   6  35
ATOM     35  C   UNL     1     -11.348  -2.567  19.167  0.00  0.00    +0.000 C 
ATOM     36  H   UNL     1     -12.213  -2.863  18.559  0.00  0.00    +0.000 HD
BRANCH  35  37
ATOM     37  C   UNL     1     -11.834  -2.061  20.525  0.00  0.00    +0.000 C 
ATOM     38  H   UNL     1     -11.902  -0.968  20.545  0.00  0.00    +0.000 HD
ATOM     39  H   UNL     1     -11.178  -2.368  21.344  0.00  0.00    +0.000 HD
ATOM     40  H   UNL     1     -12.835  -2.457  20.740  0.00  0.00    +0.000 HD
ENDBRANCH  35  37
BRANCH  35  41
ATOM     41  C   UNL     1     -10.641  -1.428  18.429  0.00  0.00    +0.000 C 
ATOM     42  H   UNL     1     -10.152  -0.744  19.133  0.00  0.00    +0.000 HD
ATOM     43  H   UNL     1     -11.351  -0.846  17.831  0.00  0.00    +0.000 HD
ATOM     44  H   UNL     1      -9.870  -1.817  17.757  0.00  0.00    +0.000 HD
ENDBRANCH  35  41
ENDBRANCH   6  35
TORSDOF 7
ENDMDL
MODEL 8
REMARK VINA RESULT:    -8.508      3.325      4.727
REMARK INTER + INTRA:         -11.372
REMARK INTER:                 -10.831
REMARK INTRA:                  -0.541
REMARK UNBOUND:                -0.377
REMARK  Name = 
REMARK  7 active torsions:
REMARK  status: ('A' for Active; 'I' for Inactive)
REMARK    1  A    between atoms: C_1  and  C_2
REMARK    2  A    between atoms: C_6  and  N_7
REMARK    3  A    between atoms: N_7  and  C_8
REMARK    4  A    between atoms: N_13  and  C_14
REMARK    5  A    between atoms: C_14  and  C_15
REMARK    6  A    between atoms: C_14  and  C_16
REMARK    7  A    between atoms: C_17  and  N_18
REMARK                            x       y       z     vdW  Elec       q    Type
REMARK                         _______ _______ _______ _____ _____    ______ ____
ROOT
ATOM      1  C   UNL     1      -9.740  -5.489  15.457  0.00  0.00    +0.000 A 
ATOM      2  N   UNL     1     -10.800  -5.497  16.272  0.00  0.00    +0.000 N 
ATOM      3  C   UNL     1     -11.795  -4.638  16.093  0.00  0.00    +0.000 A 
ATOM      4  N   UNL     1     -11.868  -3.768  15.078  0.00  0.00    +0.000 NA
ATOM      5  C   UNL     1     -10.840  -3.748  14.208  0.00  0.00    +0.000 A 
ATOM      6  N   UNL     1     -10.919  -2.906  13.091  0.00  0.00    +0.000 N 
ATOM      7  C   UNL     1      -9.727  -4.611  14.352  0.00  0.00    +0.000 A 
ATOM      8  H   UNL     1     -10.808  -6.150  17.048  0.00  0.00    +0.000 HD
ATOM      9  H   UNL     1     -12.587  -4.625  16.835  0.00  0.00    +0.000 HD
ATOM     10  H   UNL     1     -10.120  -2.285  13.009  0.00  0.00    +0.000 HD
ENDROOT
BRANCH   7  11
ATOM     11  N   UNL     1      -8.563  -4.502  13.549  0.00  0.00    +0.000 N 
ATOM     12  H   UNL     1      -8.760  -4.161  12.607  0.00  0.00    +0.000 HD
ATOM     13  H   UNL     1      -8.017  -5.362  13.489  0.00  0.00    +0.000 HD
ENDBRANCH   7  11
BRANCH   1  14
ATOM     14  N   UNL     1      -8.656  -6.359  15.747  0.00  0.00    +0.000 N 
ATOM     15  H   UNL     1      -8.091  -5.930  16.488  0.00  0.00    +0.000 HD
BRANCH  14  20
ATOM     16  C   UNL     1      -8.684  -9.217  20.044  0.00  0.00    +0.000 A 
ATOM     17  C   UNL     1      -8.586  -7.844  19.883  0.00  0.00    +0.000 A 
ATOM     18  C   UNL     1      -8.652  -7.312  18.595  0.00  0.00    +0.000 A 
ATOM     19  C   UNL     1      -8.835  -8.153  17.477  0.00  0.00    +0.000 A 
ATOM     20  C   UNL     1      -8.871  -7.728  16.112  0.00  0.00    +0.000 A 
ATOM     21  C   UNL     1      -9.200  -8.652  15.104  0.00  0.00    +0.000 A 
ATOM     22  C   UNL     1      -9.344  -9.995  15.402  0.00  0.00    +0.000 A 
ATOM     23  C   UNL     1      -9.215 -10.415  16.719  0.00  0.00    +0.000 A 
ATOM     24  C   UNL     1      -8.976  -9.527  17.760  0.00  0.00    +0.000 A 
ATOM     25  N   UNL     1      -8.890 -10.042  18.994  0.00  0.00    +0.000 NA
ATOM     26  H   UNL     1      -8.457  -7.193  20.749  0.00  0.00    +0.000 HD
ATOM     27  H   UNL     1      -8.568  -6.234  18.476  0.00  0.00    +0.000 HD
ATOM     28  H   UNL     1      -9.352  -8.346  14.071  0.00  0.00    +0.000 HD
ATOM     29  H   UNL     1      -9.578 -10.719  14.625  0.00  0.00    +0.000 HD
ATOM     30  H   UNL     1      -9.329 -11.466  16.958  0.00  0.00    +0.000 HD
BRANCH  16  31
ATOM     31  C   UNL     1      -8.585  -9.869  21.389  0.00  0.00    +0.000 C 
ATOM     32  H   UNL     1      -8.943  -9.210  22.186  0.00  0.00    +0.000 HD
ATOM     33  H   UNL     1      -7.539 -10.117  21.610  0.00  0.00    +0.000 HD
ATOM     34  H   UNL     1      -9.180 -10.788  21.403  0.00  0.00    +0.000 HD
ENDBRANCH  16  31
ENDBRANCH  14  20
ENDBRANCH   1  14
BRANCH   6  35
ATOM     35  C   UNL     1     -12.204  -2.246  12.789  0.00  0.00    +0.000 C 
ATOM     36  H   UNL     1     -12.883  -2.330  13.648  0.00  0.00    +0.000 HD
BRANCH  35  37
ATOM     37  C   UNL     1     -12.038  -0.773  12.416  0.00  0.00    +0.000 C 
ATOM     38  H   UNL     1     -12.469  -0.558  11.432  0.00  0.00    +0.000 HD
ATOM     39  H   UNL     1     -10.990  -0.464  12.395  0.00  0.00    +0.000 HD
ATOM     40  H   UNL     1     -12.553  -0.138  13.148  0.00  0.00    +0.000 HD
ENDBRANCH  35  37
BRANCH  35  41
ATOM     41  C   UNL     1     -12.853  -2.992  11.620  0.00  0.00    +0.000 C 
ATOM     42  H   UNL     1     -13.659  -2.399  11.172  0.00  0.00    +0.000 HD
ATOM     43  H   UNL     1     -13.279  -3.946  11.951  0.00  0.00    +0.000 HD
ATOM     44  H   UNL     1     -12.120  -3.201  10.835  0.00  0.00    +0.000 HD
ENDBRANCH  35  41
ENDBRANCH   6  35
TORSDOF 7
ENDMDL
MODEL 9
REMARK VINA RESULT:    -8.470      2.315      3.134
REMARK INTER + INTRA:         -11.323
REMARK INTER:                 -11.007
REMARK INTRA:                  -0.316
REMARK UNBOUND:                -0.377
REMARK  Name = 
REMARK  7 active torsions:
REMARK  status: ('A' for Active; 'I' for Inactive)
REMARK    1  A    between atoms: C_1  and  C_2
REMARK    2  A    between atoms: C_6  and  N_7
REMARK    3  A    between atoms: N_7  and  C_8
REMARK    4  A    between atoms: N_13  and  C_14
REMARK    5  A    between atoms: C_14  and  C_15
REMARK    6  A    between atoms: C_14  and  C_16
REMARK    7  A    between atoms: C_17  and  N_18
REMARK                            x       y       z     vdW  Elec       q    Type
REMARK                         _______ _______ _______ _____ _____    ______ ____
ROOT
ATOM      1  C   UNL     1      -9.309  -7.068  18.484  0.00  0.00    +0.000 A 
ATOM      2  N   UNL     1      -9.855  -5.939  18.018  0.00  0.00    +0.000 N 
ATOM      3  C   UNL     1      -9.442  -4.759  18.459  0.00  0.00    +0.000 A 
ATOM      4  N   UNL     1      -8.430  -4.585  19.318  0.00  0.00    +0.000 NA
ATOM      5  C   UNL     1      -7.822  -5.692  19.788  0.00  0.00    +0.000 A 
ATOM      6  N   UNL     1      -6.711  -5.546  20.626  0.00  0.00    +0.000 N 
ATOM      7  C   UNL     1      -8.229  -6.988  19.390  0.00  0.00    +0.000 A 
ATOM      8  H   UNL     1     -10.614  -6.010  17.348  0.00  0.00    +0.000 HD
ATOM      9  H   UNL     1      -9.979  -3.879  18.118  0.00  0.00    +0.000 HD
ATOM     10  H   UNL     1      -6.811  -6.047  21.504  0.00  0.00    +0.000 HD
ENDROOT
BRANCH   7  11
ATOM     11  N   UNL     1      -7.719  -8.170  19.987  0.00  0.00    +0.000 N 
ATOM     12  H   UNL     1      -7.066  -7.980  20.748  0.00  0.00    +0.000 HD
ATOM     13  H   UNL     1      -7.287  -8.816  19.325  0.00  0.00    +0.000 HD
ENDBRANCH   7  11
BRANCH   1  14
ATOM     14  N   UNL     1      -9.851  -8.309  18.057  0.00  0.00    +0.000 N 
ATOM     15  H   UNL     1     -10.874  -8.234  18.078  0.00  0.00    +0.000 HD
BRANCH  14  20
ATOM     16  C   UNL     1      -8.635 -12.967  16.196  0.00  0.00    +0.000 A 
ATOM     17  C   UNL     1      -9.099 -12.596  17.449  0.00  0.00    +0.000 A 
ATOM     18  C   UNL     1      -9.401 -11.255  17.684  0.00  0.00    +0.000 A 
ATOM     19  C   UNL     1      -9.257 -10.294  16.661  0.00  0.00    +0.000 A 
ATOM     20  C   UNL     1      -9.492  -8.890  16.797  0.00  0.00    +0.000 A 
ATOM     21  C   UNL     1      -9.445  -8.063  15.661  0.00  0.00    +0.000 A 
ATOM     22  C   UNL     1      -9.033  -8.568  14.441  0.00  0.00    +0.000 A 
ATOM     23  C   UNL     1      -8.716  -9.915  14.337  0.00  0.00    +0.000 A 
ATOM     24  C   UNL     1      -8.830 -10.788  15.411  0.00  0.00    +0.000 A 
ATOM     25  N   UNL     1      -8.516 -12.072  15.190  0.00  0.00    +0.000 NA
ATOM     26  H   UNL     1      -9.222 -13.342  18.236  0.00  0.00    +0.000 HD
ATOM     27  H   UNL     1      -9.760 -10.971  18.671  0.00  0.00    +0.000 HD
ATOM     28  H   UNL     1      -9.730  -7.014  15.702  0.00  0.00    +0.000 HD
ATOM     29  H   UNL     1      -8.974  -7.930  13.562  0.00  0.00    +0.000 HD
ATOM     30  H   UNL     1      -8.394 -10.316  13.383  0.00  0.00    +0.000 HD
BRANCH  16  31
ATOM     31  C   UNL     1      -8.253 -14.379  15.875  0.00  0.00    +0.000 C 
ATOM     32  H   UNL     1      -7.741 -14.451  14.910  0.00  0.00    +0.000 HD
ATOM     33  H   UNL     1      -9.151 -15.007  15.820  0.00  0.00    +0.000 HD
ATOM     34  H   UNL     1      -7.589 -14.772  16.652  0.00  0.00    +0.000 HD
ENDBRANCH  16  31
ENDBRANCH  14  20
ENDBRANCH   1  14
BRANCH   6  35
ATOM     35  C   UNL     1      -6.112  -4.208  20.786  0.00  0.00    +0.000 C 
ATOM     36  H   UNL     1      -6.500  -3.526  20.017  0.00  0.00    +0.000 HD
BRANCH  35  37
ATOM     37  C   UNL     1      -6.365  -3.608  22.169  0.00  0.00    +0.000 C 
ATOM     38  H   UNL     1      -5.573  -3.880  22.875  0.00  0.00    +0.000 HD
ATOM     39  H   UNL     1      -7.317  -3.932  22.596  0.00  0.00    +0.000 HD
ATOM     40  H   UNL     1      -6.388  -2.512  22.106  0.00  0.00    +0.000 HD
ENDBRANCH  35  37
BRANCH  35  41
ATOM     41  C   UNL     1      -4.603  -4.336  20.561  0.00  0.00    +0.000 C 
ATOM     42  H   UNL     1      -4.054  -4.267  21.507  0.00  0.00    +0.000 HD
ATOM     43  H   UNL     1      -4.236  -3.545  19.898  0.00  0.00    +0.000 HD
ATOM     44  H   UNL     1      -4.357  -5.301  20.106  0.00  0.00    +0.000 HD
ENDBRANCH  35  41
ENDBRANCH   6  35
TORSDOF 7
ENDMDL
