
 OpenBabel01112423063D

 47 50  0  0  0  0  0  0  0  0999 V2000
    4.4985   -2.7823   -2.8185 C   0  0  0  0  0  0  0  0  0  0  0  0
    4.6408   -2.5507   -1.4136 O   0  0  0  0  0  0  0  0  0  0  0  0
    4.0515   -3.4935   -0.5951 C   0  0  0  0  0  0  0  0  0  0  0  0
    3.6769   -4.7713   -1.0242 C   0  0  0  0  0  0  0  0  0  0  0  0
    3.1012   -5.6728   -0.1273 C   0  0  0  0  0  0  0  0  0  0  0  0
    2.9149   -5.3209    1.1938 C   0  0  0  0  0  0  0  0  0  0  0  0
    3.2912   -4.0527    1.6273 C   0  0  0  0  0  0  0  0  0  0  0  0
    3.8351   -3.1073    0.7407 C   0  0  0  0  0  0  0  0  0  0  0  0
    4.2098   -1.8201    1.2107 N   0  0  0  0  0  0  0  0  0  0  0  0
    3.5177   -1.0600    2.1860 C   0  0  0  0  0  0  0  0  0  0  0  0
    2.2031   -1.2976    2.3974 N   0  0  0  0  0  0  0  0  0  0  0  0
    1.6053   -0.6014    3.3702 C   0  0  0  0  0  0  0  0  0  0  0  0
    2.2182    0.3094    4.1317 N   0  3  0  0  0  0  0  0  0  0  0  0
    3.5113    0.5789    3.9551 C   0  0  0  0  0  0  0  0  0  0  0  0
    4.1235    1.5175    4.8029 N   0  0  0  0  0  0  0  0  0  0  0  0
    3.6987    1.9794    6.0693 C   0  0  0  0  0  0  0  0  0  0  0  0
    3.1507    1.1143    7.0256 C   0  0  0  0  0  0  0  0  0  0  0  0
    2.7502    1.5978    8.2771 C   0  0  0  0  0  0  0  0  0  0  0  0
    2.8911    2.9482    8.5920 C   0  0  0  0  0  0  0  0  0  0  0  0
    3.3915    3.8223    7.6374 C   0  0  0  0  0  0  0  0  0  0  0  0
    3.8032    3.3405    6.3878 C   0  0  0  0  0  0  0  0  0  0  0  0
    3.4748    5.1703    7.8356 O   0  0  0  0  0  0  0  0  0  0  0  0
    3.5563    5.5100    9.2199 C   0  0  0  0  0  0  0  0  0  0  0  0
    2.6247    4.7127   10.1262 C   0  0  0  0  0  0  0  0  0  0  0  0
    2.5390    3.3135    9.8549 O   0  0  0  0  0  0  0  0  0  0  0  0
    4.2299   -0.0961    2.9347 C   0  0  0  0  0  0  0  0  0  0  0  0
    5.6001    0.0831    2.7597 N   0  0  0  0  0  0  0  0  0  0  0  0
    4.9520   -1.9397   -3.3509 H   0  0  0  0  0  0  0  0  0  0  0  0
    3.4386   -2.8224   -3.0947 H   0  0  0  0  0  0  0  0  0  0  0  0
    5.0255   -3.6873   -3.1387 H   0  0  0  0  0  0  0  0  0  0  0  0
    3.8275   -5.1108   -2.0449 H   0  0  0  0  0  0  0  0  0  0  0  0
    2.8042   -6.6652   -0.4778 H   0  0  0  0  0  0  0  0  0  0  0  0
    2.4908   -6.0337    1.8994 H   0  0  0  0  0  0  0  0  0  0  0  0
    3.1587   -3.8077    2.6823 H   0  0  0  0  0  0  0  0  0  0  0  0
    4.5949   -1.2616    0.4581 H   0  0  0  0  0  0  0  0  0  0  0  0
    0.5478   -0.7778    3.5451 H   0  0  0  0  0  0  0  0  0  0  0  0
    1.7025    0.8057    4.8471 H   0  0  0  0  0  0  0  0  0  0  0  0
    4.7019    2.1832    4.2913 H   0  0  0  0  0  0  0  0  0  0  0  0
    3.0833    0.0431    6.8513 H   0  0  0  0  0  0  0  0  0  0  0  0
    2.3468    0.9165    9.0244 H   0  0  0  0  0  0  0  0  0  0  0  0
    4.2169    4.0522    5.6766 H   0  0  0  0  0  0  0  0  0  0  0  0
    4.6005    5.4012    9.5382 H   0  0  0  0  0  0  0  0  0  0  0  0
    3.3079    6.5735    9.3095 H   0  0  0  0  0  0  0  0  0  0  0  0
    1.6097    5.1242   10.0958 H   0  0  0  0  0  0  0  0  0  0  0  0
    2.9763    4.8158   11.1594 H   0  0  0  0  0  0  0  0  0  0  0  0
    6.1591    0.7116    3.3224 H   0  0  0  0  0  0  0  0  0  0  0  0
    6.0529   -0.3533    1.9571 H   0  0  0  0  0  0  0  0  0  0  0  0
  1  2  1  0  0  0  0
  1 28  1  0  0  0  0
  1 29  1  0  0  0  0
  1 30  1  0  0  0  0
  2  3  1  0  0  0  0
  3  4  1  0  0  0  0
  3  8  2  0  0  0  0
  4  5  2  0  0  0  0
  4 31  1  0  0  0  0
  5  6  1  0  0  0  0
  5 32  1  0  0  0  0
  6  7  2  0  0  0  0
  6 33  1  0  0  0  0
  7  8  1  0  0  0  0
  7 34  1  0  0  0  0
  8  9  1  0  0  0  0
  9 10  1  0  0  0  0
  9 35  1  0  0  0  0
 10 11  1  0  0  0  0
 10 26  2  0  0  0  0
 11 12  2  0  0  0  0
 12 13  1  0  0  0  0
 12 36  1  0  0  0  0
 13 14  2  0  0  0  0
 13 37  1  0  0  0  0
 14 15  1  0  0  0  0
 14 26  1  0  0  0  0
 15 16  1  0  0  0  0
 15 38  1  0  0  0  0
 16 17  1  0  0  0  0
 16 21  2  0  0  0  0
 17 18  2  0  0  0  0
 17 39  1  0  0  0  0
 18 19  1  0  0  0  0
 18 40  1  0  0  0  0
 19 20  2  0  0  0  0
 19 25  1  0  0  0  0
 20 21  1  0  0  0  0
 20 22  1  0  0  0  0
 21 41  1  0  0  0  0
 22 23  1  0  0  0  0
 23 24  1  0  0  0  0
 23 42  1  0  0  0  0
 23 43  1  0  0  0  0
 24 25  1  0  0  0  0
 24 44  1  0  0  0  0
 24 45  1  0  0  0  0
 26 27  1  0  0  0  0
 27 46  1  0  0  0  0
 27 47  1  0  0  0  0
M  CHG  1  13   1
M  END
$$$$
