REMARK  Name = 
REMARK  7 active torsions:
REMARK  status: ('A' for Active; 'I' for Inactive)
REMARK    1  A    between atoms: C_1  and  C_2
REMARK    2  A    between atoms: C_4  and  C_5
REMARK    3  A    between atoms: C_4  and  C_6
REMARK    4  A    between atoms: N_13  and  C_14
REMARK    5  A    between atoms: C_14  and  C_15
REMARK    6  A    between atoms: N_17  and  C_18
REMARK    7  A    between atoms: C_21  and  C_22
REMARK                            x       y       z     vdW  Elec       q    Type
REMARK                         _______ _______ _______ _____ _____    ______ ____
ROOT
ATOM      1  C   UNL     1       2.082   3.608  -1.801  0.00  0.00    +0.000 C 
ATOM      2  C   UNL     1       2.479   2.745  -3.006  0.00  0.00    +0.000 C 
ATOM      3  C   UNL     1       1.890   1.310  -2.947  0.00  0.00    +0.000 C 
ATOM      4  C   UNL     1       2.145   0.665  -1.554  0.00  0.00    +0.000 C 
ATOM      5  C   UNL     1       1.878   1.565  -0.328  0.00  0.00    +0.000 C 
ATOM      6  C   UNL     1       2.527   2.942  -0.486  0.00  0.00    +0.000 C 
ATOM      7  N   UNL     1       2.286   0.878   0.891  0.00  0.00    +0.000 N 
ATOM      8  C   UNL     1       1.226   0.578   1.719  0.00  0.00    +0.000 C 
ATOM      9  O   UNL     1       1.320   0.187   2.867  0.00  0.00    +0.000 OA
ATOM     10  N   UNL     1       0.067   0.918   1.083  0.00  0.00    +0.000 N 
ATOM     11  C   UNL     1       0.395   1.760   0.063  0.00  0.00    +0.000 C 
ATOM     12  O   UNL     1      -0.362   2.621  -0.374  0.00  0.00    +0.000 OA
ATOM     13  H   UNL     1       0.995   3.712  -1.820  0.00  0.00    +0.000 HD
ATOM     14  H   UNL     1       3.575   2.690  -3.052  0.00  0.00    +0.000 HD
ATOM     15  H   UNL     1       2.155   3.236  -3.933  0.00  0.00    +0.000 HD
ATOM     16  H   UNL     1       3.209   0.374  -1.518  0.00  0.00    +0.000 HD
ATOM     17  H   UNL     1       1.588  -0.277  -1.472  0.00  0.00    +0.000 HD
ATOM     18  H   UNL     1       3.622   2.848  -0.463  0.00  0.00    +0.000 HD
ATOM     19  H   UNL     1       2.258   3.582   0.364  0.00  0.00    +0.000 HD
ATOM     20  H   UNL     1       3.237   0.754   1.217  0.00  0.00    +0.000 HD
ENDROOT
BRANCH   1  21
ATOM     21  C   UNL     1       2.602   5.036  -1.897  0.00  0.00    +0.000 C 
ATOM     22  H   UNL     1       2.231   5.516  -2.809  0.00  0.00    +0.000 HD
ATOM     23  H   UNL     1       3.695   5.074  -1.899  0.00  0.00    +0.000 HD
ATOM     24  H   UNL     1       2.236   5.624  -1.048  0.00  0.00    +0.000 HD
ENDBRANCH   1  21
BRANCH   3  25
ATOM     25  C   UNL     1       0.384   1.309  -3.282  0.00  0.00    +0.000 C 
ATOM     26  H   UNL     1       0.217   1.531  -4.343  0.00  0.00    +0.000 HD
ATOM     27  H   UNL     1      -0.180   2.052  -2.719  0.00  0.00    +0.000 HD
ATOM     28  H   UNL     1      -0.063   0.329  -3.083  0.00  0.00    +0.000 HD
ENDBRANCH   3  25
BRANCH   3  29
ATOM     29  C   UNL     1       2.576   0.460  -4.044  0.00  0.00    +0.000 C 
ATOM     30  H   UNL     1       2.381   0.874  -5.041  0.00  0.00    +0.000 HD
ATOM     31  H   UNL     1       2.208  -0.571  -4.037  0.00  0.00    +0.000 HD
ATOM     32  H   UNL     1       3.663   0.431  -3.911  0.00  0.00    +0.000 HD
ENDBRANCH   3  29
BRANCH  10  33
ATOM     33  C   UNL     1      -1.225   0.952   1.725  0.00  0.00    +0.000 C 
ATOM     34  H   UNL     1      -1.866   1.697   1.236  0.00  0.00    +0.000 HD
ATOM     35  H   UNL     1      -1.128   1.238   2.777  0.00  0.00    +0.000 HD
BRANCH  33  36
ATOM     36  C   UNL     1      -1.932  -0.385   1.575  0.00  0.00    +0.000 C 
ATOM     37  O   UNL     1      -2.586  -0.604   0.557  0.00  0.00    +0.000 OA
ATOM     38  N   UNL     1      -1.759  -1.281   2.632  0.00  0.00    +0.000 N 
ATOM     39  H   UNL     1      -1.328  -0.934   3.481  0.00  0.00    +0.000 HD
BRANCH  38  40
ATOM     40  C   UNL     1      -2.329  -2.577   2.671  0.00  0.00    +0.000 A 
ATOM     41  C   UNL     1      -2.769  -3.221   1.510  0.00  0.00    +0.000 A 
ATOM     42  C   UNL     1      -3.460  -4.428   1.565  0.00  0.00    +0.000 A 
ATOM     43  C   UNL     1      -3.700  -5.055   2.789  0.00  0.00    +0.000 A 
ATOM     44  C   UNL     1      -3.185  -4.459   3.952  0.00  0.00    +0.000 A 
ATOM     45  C   UNL     1      -2.494  -3.236   3.897  0.00  0.00    +0.000 A 
ATOM     46  H   UNL     1      -2.590  -2.800   0.526  0.00  0.00    +0.000 HD
ATOM     47  H   UNL     1      -3.828  -4.857   0.635  0.00  0.00    +0.000 HD
ATOM     48  H   UNL     1      -3.347  -4.941   4.919  0.00  0.00    +0.000 HD
ATOM     49  H   UNL     1      -2.140  -2.794   4.824  0.00  0.00    +0.000 HD
BRANCH  43  50
ATOM     50  C   UNL     1      -4.502  -6.332   2.834  0.00  0.00    +0.000 C 
ATOM     51  F   UNL     1      -4.930  -6.749   1.608  0.00  0.00    +0.000 F 
ATOM     52  F   UNL     1      -3.798  -7.375   3.354  0.00  0.00    +0.000 F 
ATOM     53  F   UNL     1      -5.625  -6.218   3.596  0.00  0.00    +0.000 F 
ENDBRANCH  43  50
ENDBRANCH  38  40
ENDBRANCH  33  36
ENDBRANCH  10  33
TORSDOF 7
