MODEL 1
REMARK VINA RESULT:   -10.911      0.000      0.000
REMARK INTER + INTRA:         -13.848
REMARK INTER:                 -13.462
REMARK INTRA:                  -0.386
REMARK UNBOUND:                -0.386
REMARK  Name = 
REMARK  4 active torsions:
REMARK  status: ('A' for Active; 'I' for Inactive)
REMARK    1  A    between atoms: S_2  and  N_4
REMARK    2  A    between atoms: S_2  and  C_19
REMARK    3  A    between atoms: N_4  and  C_5
REMARK    4  A    between atoms: C_10  and  C_11
REMARK                            x       y       z     vdW  Elec       q    Type
REMARK                         _______ _______ _______ _____ _____    ______ ____
ROOT
ATOM      1  C   UNL     1      -7.591  -6.167  19.215  0.00  0.00    +0.000 A 
ATOM      2  C   UNL     1      -6.212  -6.082  19.412  0.00  0.00    +0.000 A 
ATOM      3  C   UNL     1      -5.673  -5.126  20.288  0.00  0.00    +0.000 A 
ATOM      4  C   UNL     1      -6.549  -4.261  20.961  0.00  0.00    +0.000 A 
ATOM      5  N   UNL     1      -6.284  -3.270  21.875  0.00  0.00    +0.000 NA
ATOM      6  C   UNL     1      -7.457  -2.763  22.203  0.00  0.00    +0.000 A 
ATOM      7  N   UNL     1      -8.466  -3.382  21.507  0.00  0.00    +0.000 N 
ATOM      8  C   UNL     1      -7.915  -4.360  20.723  0.00  0.00    +0.000 A 
ATOM      9  C   UNL     1      -8.478  -5.290  19.849  0.00  0.00    +0.000 A 
ATOM     10  H   UNL     1      -5.538  -6.761  18.893  0.00  0.00    +0.000 HD
ATOM     11  H   UNL     1      -4.604  -5.056  20.454  0.00  0.00    +0.000 HD
ATOM     12  H   UNL     1      -9.444  -3.143  21.596  0.00  0.00    +0.000 HD
ATOM     13  H   UNL     1      -9.546  -5.334  19.674  0.00  0.00    +0.000 HD
ENDROOT
BRANCH   6  14
ATOM     14  C   UNL     1      -7.731  -1.671  23.179  0.00  0.00    +0.000 C 
ATOM     15  C   UNL     1      -8.481  -2.147  24.409  0.00  0.00    +0.000 C 
ATOM     16  C   UNL     1      -9.231  -0.906  24.820  0.00  0.00    +0.000 C 
ATOM     17  C   UNL     1      -9.584  -0.282  23.487  0.00  0.00    +0.000 C 
ATOM     18  O   UNL     1      -8.582  -0.690  22.543  0.00  0.00    +0.000 OA
ATOM     19  H   UNL     1      -6.797  -1.166  23.453  0.00  0.00    +0.000 HD
ATOM     20  H   UNL     1      -7.814  -2.525  25.190  0.00  0.00    +0.000 HD
ATOM     21  H   UNL     1      -9.195  -2.942  24.162  0.00  0.00    +0.000 HD
ATOM     22  H   UNL     1      -8.568  -0.238  25.382  0.00  0.00    +0.000 HD
ATOM     23  H   UNL     1     -10.110  -1.109  25.438  0.00  0.00    +0.000 HD
ATOM     24  H   UNL     1      -9.614   0.811  23.537  0.00  0.00    +0.000 HD
ATOM     25  H   UNL     1     -10.553  -0.640  23.123  0.00  0.00    +0.000 HD
ENDBRANCH   6  14
BRANCH   1  26
ATOM     26  N   UNL     1      -8.123  -7.119  18.317  0.00  0.00    +0.000 N 
ATOM     27  H   UNL     1      -7.634  -7.353  17.456  0.00  0.00    +0.000 HD
BRANCH  26  29
ATOM     28  O   UNL     1      -9.167  -8.521  20.120  0.00  0.00    +0.000 OA
ATOM     29  S   UNL     1      -9.404  -8.100  18.756  0.00  0.00    +0.000 S 
ATOM     30  O   UNL     1     -10.640  -7.439  18.395  0.00  0.00    +0.000 OA
BRANCH  29  31
ATOM     31  C   UNL     1      -9.231  -9.527  17.730  0.00  0.00    +0.000 A 
ATOM     32  C   UNL     1      -8.856 -10.755  18.287  0.00  0.00    +0.000 A 
ATOM     33  C   UNL     1      -8.640 -11.852  17.447  0.00  0.00    +0.000 A 
ATOM     34  C   UNL     1      -8.794 -11.714  16.068  0.00  0.00    +0.000 A 
ATOM     35 CL   UNL     1      -8.497 -13.059  15.038  0.00  0.00    +0.000 Cl
ATOM     36  C   UNL     1      -9.182 -10.494  15.517  0.00  0.00    +0.000 A 
ATOM     37  C   UNL     1      -9.397  -9.402  16.356  0.00  0.00    +0.000 A 
ATOM     38  F   UNL     1      -9.786  -8.243  15.807  0.00  0.00    +0.000 F 
ATOM     39  H   UNL     1      -8.716 -10.862  19.361  0.00  0.00    +0.000 HD
ATOM     40  H   UNL     1      -8.333 -12.805  17.876  0.00  0.00    +0.000 HD
ATOM     41  H   UNL     1      -9.307 -10.378  14.445  0.00  0.00    +0.000 HD
ENDBRANCH  29  31
ENDBRANCH  26  29
ENDBRANCH   1  26
TORSDOF 4
ENDMDL
MODEL 2
REMARK VINA RESULT:   -10.889      1.160      1.501
REMARK INTER + INTRA:         -13.822
REMARK INTER:                 -14.050
REMARK INTRA:                   0.229
REMARK UNBOUND:                -0.386
REMARK  Name = 
REMARK  4 active torsions:
REMARK  status: ('A' for Active; 'I' for Inactive)
REMARK    1  A    between atoms: S_2  and  N_4
REMARK    2  A    between atoms: S_2  and  C_19
REMARK    3  A    between atoms: N_4  and  C_5
REMARK    4  A    between atoms: C_10  and  C_11
REMARK                            x       y       z     vdW  Elec       q    Type
REMARK                         _______ _______ _______ _____ _____    ______ ____
ROOT
ATOM      1  C   UNL     1      -7.759  -6.255  18.434  0.00  0.00    +0.000 A 
ATOM      2  C   UNL     1      -6.365  -6.233  18.491  0.00  0.00    +0.000 A 
ATOM      3  C   UNL     1      -5.702  -5.486  19.478  0.00  0.00    +0.000 A 
ATOM      4  C   UNL     1      -6.468  -4.765  20.404  0.00  0.00    +0.000 A 
ATOM      5  N   UNL     1      -6.072  -3.987  21.465  0.00  0.00    +0.000 NA
ATOM      6  C   UNL     1      -7.185  -3.540  22.017  0.00  0.00    +0.000 A 
ATOM      7  N   UNL     1      -8.283  -3.988  21.325  0.00  0.00    +0.000 N 
ATOM      8  C   UNL     1      -7.855  -4.792  20.303  0.00  0.00    +0.000 A 
ATOM      9  C   UNL     1      -8.541  -5.513  19.326  0.00  0.00    +0.000 A 
ATOM     10  H   UNL     1      -5.775  -6.801  17.774  0.00  0.00    +0.000 HD
ATOM     11  H   UNL     1      -4.619  -5.468  19.536  0.00  0.00    +0.000 HD
ATOM     12  H   UNL     1      -9.237  -3.757  21.569  0.00  0.00    +0.000 HD
ATOM     13  H   UNL     1      -9.622  -5.504  19.265  0.00  0.00    +0.000 HD
ENDROOT
BRANCH   6  14
ATOM     14  C   UNL     1      -7.313  -2.668  23.218  0.00  0.00    +0.000 C 
ATOM     15  C   UNL     1      -8.614  -2.879  23.970  0.00  0.00    +0.000 C 
ATOM     16  C   UNL     1      -8.838  -1.527  24.597  0.00  0.00    +0.000 C 
ATOM     17  C   UNL     1      -8.320  -0.584  23.532  0.00  0.00    +0.000 C 
ATOM     18  O   UNL     1      -7.318  -1.288  22.785  0.00  0.00    +0.000 OA
ATOM     19  H   UNL     1      -6.447  -2.802  23.876  0.00  0.00    +0.000 HD
ATOM     20  H   UNL     1      -8.552  -3.689  24.703  0.00  0.00    +0.000 HD
ATOM     21  H   UNL     1      -9.441  -3.107  23.286  0.00  0.00    +0.000 HD
ATOM     22  H   UNL     1      -8.233  -1.432  25.506  0.00  0.00    +0.000 HD
ATOM     23  H   UNL     1      -9.881  -1.334  24.862  0.00  0.00    +0.000 HD
ATOM     24  H   UNL     1      -7.886   0.325  23.960  0.00  0.00    +0.000 HD
ATOM     25  H   UNL     1      -9.115  -0.294  22.836  0.00  0.00    +0.000 HD
ENDBRANCH   6  14
BRANCH   1  26
ATOM     26  N   UNL     1      -8.418  -6.994  17.426  0.00  0.00    +0.000 N 
ATOM     27  H   UNL     1      -8.023  -7.066  16.491  0.00  0.00    +0.000 HD
BRANCH  26  29
ATOM     28  O   UNL     1      -9.643  -8.261  19.215  0.00  0.00    +0.000 OA
ATOM     29  S   UNL     1      -9.699  -8.003  17.792  0.00  0.00    +0.000 S 
ATOM     30  O   UNL     1     -10.901  -7.466  17.190  0.00  0.00    +0.000 OA
BRANCH  29  31
ATOM     31  C   UNL     1      -9.309  -9.517  16.971  0.00  0.00    +0.000 A 
ATOM     32  C   UNL     1      -9.519  -9.647  15.593  0.00  0.00    +0.000 A 
ATOM     33  C   UNL     1      -9.286 -10.881  14.977  0.00  0.00    +0.000 A 
ATOM     34  C   UNL     1      -8.854 -11.968  15.736  0.00  0.00    +0.000 A 
ATOM     35 CL   UNL     1      -8.599 -13.490  14.977  0.00  0.00    +0.000 Cl
ATOM     36  C   UNL     1      -8.631 -11.832  17.105  0.00  0.00    +0.000 A 
ATOM     37  C   UNL     1      -8.864 -10.601  17.717  0.00  0.00    +0.000 A 
ATOM     38  F   UNL     1      -8.626 -10.488  19.031  0.00  0.00    +0.000 F 
ATOM     39  H   UNL     1      -9.875  -8.807  15.000  0.00  0.00    +0.000 HD
ATOM     40  H   UNL     1      -9.464 -10.989  13.908  0.00  0.00    +0.000 HD
ATOM     41  H   UNL     1      -8.292 -12.672  17.703  0.00  0.00    +0.000 HD
ENDBRANCH  29  31
ENDBRANCH  26  29
ENDBRANCH   1  26
TORSDOF 4
ENDMDL
MODEL 3
REMARK VINA RESULT:   -10.788      3.841      8.798
REMARK INTER + INTRA:         -13.697
REMARK INTER:                 -13.277
REMARK INTRA:                  -0.420
REMARK UNBOUND:                -0.386
REMARK  Name = 
REMARK  4 active torsions:
REMARK  status: ('A' for Active; 'I' for Inactive)
REMARK    1  A    between atoms: S_2  and  N_4
REMARK    2  A    between atoms: S_2  and  C_19
REMARK    3  A    between atoms: N_4  and  C_5
REMARK    4  A    between atoms: C_10  and  C_11
REMARK                            x       y       z     vdW  Elec       q    Type
REMARK                         _______ _______ _______ _____ _____    ______ ____
ROOT
ATOM      1  C   UNL     1      -9.907  -7.807  18.798  0.00  0.00    +0.000 A 
ATOM      2  C   UNL     1      -9.275  -8.294  19.943  0.00  0.00    +0.000 A 
ATOM      3  C   UNL     1      -8.660  -9.556  19.937  0.00  0.00    +0.000 A 
ATOM      4  C   UNL     1      -8.693 -10.315  18.758  0.00  0.00    +0.000 A 
ATOM      5  N   UNL     1      -8.156 -11.550  18.486  0.00  0.00    +0.000 NA
ATOM      6  C   UNL     1      -8.468 -11.807  17.230  0.00  0.00    +0.000 A 
ATOM      7  N   UNL     1      -9.213 -10.785  16.696  0.00  0.00    +0.000 N 
ATOM      8  C   UNL     1      -9.352  -9.808  17.644  0.00  0.00    +0.000 A 
ATOM      9  C   UNL     1      -9.983  -8.564  17.624  0.00  0.00    +0.000 A 
ATOM     10  H   UNL     1      -9.245  -7.697  20.853  0.00  0.00    +0.000 HD
ATOM     11  H   UNL     1      -8.158  -9.941  20.818  0.00  0.00    +0.000 HD
ATOM     12  H   UNL     1      -9.569 -10.780  15.749  0.00  0.00    +0.000 HD
ATOM     13  H   UNL     1     -10.500  -8.201  16.744  0.00  0.00    +0.000 HD
ENDROOT
BRANCH   6  14
ATOM     14  C   UNL     1      -8.104 -13.014  16.435  0.00  0.00    +0.000 C 
ATOM     15  C   UNL     1      -8.704 -13.011  15.041  0.00  0.00    +0.000 C 
ATOM     16  C   UNL     1      -8.833 -14.484  14.751  0.00  0.00    +0.000 C 
ATOM     17  C   UNL     1      -9.197 -15.052  16.106  0.00  0.00    +0.000 C 
ATOM     18  O   UNL     1      -8.640 -14.180  17.101  0.00  0.00    +0.000 OA
ATOM     19  H   UNL     1      -7.015 -13.129  16.400  0.00  0.00    +0.000 HD
ATOM     20  H   UNL     1      -8.080 -12.482  14.315  0.00  0.00    +0.000 HD
ATOM     21  H   UNL     1      -9.698 -12.547  15.032  0.00  0.00    +0.000 HD
ATOM     22  H   UNL     1      -7.867 -14.886  14.424  0.00  0.00    +0.000 HD
ATOM     23  H   UNL     1      -9.574 -14.716  13.982  0.00  0.00    +0.000 HD
ATOM     24  H   UNL     1      -8.806 -16.065  16.249  0.00  0.00    +0.000 HD
ATOM     25  H   UNL     1     -10.282 -15.076  16.251  0.00  0.00    +0.000 HD
ENDBRANCH   6  14
BRANCH   1  26
ATOM     26  N   UNL     1     -10.540  -6.544  18.819  0.00  0.00    +0.000 N 
ATOM     27  H   UNL     1     -11.403  -6.402  19.339  0.00  0.00    +0.000 HD
BRANCH  26  29
ATOM     28  O   UNL     1      -9.596  -5.360  16.816  0.00  0.00    +0.000 OA
ATOM     29  S   UNL     1      -9.766  -5.179  18.242  0.00  0.00    +0.000 S 
ATOM     30  O   UNL     1     -10.440  -4.008  18.760  0.00  0.00    +0.000 OA
BRANCH  29  31
ATOM     31  C   UNL     1      -8.160  -5.249  18.972  0.00  0.00    +0.000 A 
ATOM     32  C   UNL     1      -7.903  -4.585  20.178  0.00  0.00    +0.000 A 
ATOM     33  C   UNL     1      -6.603  -4.580  20.695  0.00  0.00    +0.000 A 
ATOM     34  C   UNL     1      -5.577  -5.227  20.008  0.00  0.00    +0.000 A 
ATOM     35 CL   UNL     1      -3.976  -5.191  20.633  0.00  0.00    +0.000 Cl
ATOM     36  C   UNL     1      -5.838  -5.900  18.815  0.00  0.00    +0.000 A 
ATOM     37  C   UNL     1      -7.135  -5.904  18.301  0.00  0.00    +0.000 A 
ATOM     38  F   UNL     1      -7.366  -6.572  17.163  0.00  0.00    +0.000 F 
ATOM     39  H   UNL     1      -8.696  -4.063  20.708  0.00  0.00    +0.000 HD
ATOM     40  H   UNL     1      -6.397  -4.051  21.624  0.00  0.00    +0.000 HD
ATOM     41  H   UNL     1      -5.046  -6.409  18.274  0.00  0.00    +0.000 HD
ENDBRANCH  29  31
ENDBRANCH  26  29
ENDBRANCH   1  26
TORSDOF 4
ENDMDL
MODEL 4
REMARK VINA RESULT:   -10.060      4.787      6.749
REMARK INTER + INTRA:         -12.799
REMARK INTER:                 -12.317
REMARK INTRA:                  -0.482
REMARK UNBOUND:                -0.386
REMARK  Name = 
REMARK  4 active torsions:
REMARK  status: ('A' for Active; 'I' for Inactive)
REMARK    1  A    between atoms: S_2  and  N_4
REMARK    2  A    between atoms: S_2  and  C_19
REMARK    3  A    between atoms: N_4  and  C_5
REMARK    4  A    between atoms: C_10  and  C_11
REMARK                            x       y       z     vdW  Elec       q    Type
REMARK                         _______ _______ _______ _____ _____    ______ ____
ROOT
ATOM      1  C   UNL     1     -10.868  -6.405  17.419  0.00  0.00    +0.000 A 
ATOM      2  C   UNL     1     -10.748  -5.262  18.211  0.00  0.00    +0.000 A 
ATOM      3  C   UNL     1     -10.927  -3.986  17.654  0.00  0.00    +0.000 A 
ATOM      4  C   UNL     1     -11.232  -3.884  16.289  0.00  0.00    +0.000 A 
ATOM      5  N   UNL     1     -11.476  -2.773  15.518  0.00  0.00    +0.000 NA
ATOM      6  C   UNL     1     -11.716  -3.227  14.302  0.00  0.00    +0.000 A 
ATOM      7  N   UNL     1     -11.608  -4.595  14.265  0.00  0.00    +0.000 N 
ATOM      8  C   UNL     1     -11.322  -5.044  15.526  0.00  0.00    +0.000 A 
ATOM      9  C   UNL     1     -11.135  -6.324  16.048  0.00  0.00    +0.000 A 
ATOM     10  H   UNL     1     -10.519  -5.348  19.271  0.00  0.00    +0.000 HD
ATOM     11  H   UNL     1     -10.844  -3.092  18.262  0.00  0.00    +0.000 HD
ATOM     12  H   UNL     1     -11.741  -5.151  13.430  0.00  0.00    +0.000 HD
ATOM     13  H   UNL     1     -11.198  -7.207  15.426  0.00  0.00    +0.000 HD
ENDROOT
BRANCH   6  14
ATOM     14  C   UNL     1     -12.059  -2.432  13.090  0.00  0.00    +0.000 C 
ATOM     15  C   UNL     1     -12.733  -3.256  12.009  0.00  0.00    +0.000 C 
ATOM     16  C   UNL     1     -12.326  -2.525  10.756  0.00  0.00    +0.000 C 
ATOM     17  C   UNL     1     -10.918  -2.076  11.083  0.00  0.00    +0.000 C 
ATOM     18  O   UNL     1     -10.834  -1.930  12.509  0.00  0.00    +0.000 OA
ATOM     19  H   UNL     1     -12.669  -1.565  13.368  0.00  0.00    +0.000 HD
ATOM     20  H   UNL     1     -13.818  -3.318  12.139  0.00  0.00    +0.000 HD
ATOM     21  H   UNL     1     -12.339  -4.280  11.980  0.00  0.00    +0.000 HD
ATOM     22  H   UNL     1     -12.972  -1.652  10.607  0.00  0.00    +0.000 HD
ATOM     23  H   UNL     1     -12.375  -3.140   9.854  0.00  0.00    +0.000 HD
ATOM     24  H   UNL     1     -10.665  -1.125  10.604  0.00  0.00    +0.000 HD
ATOM     25  H   UNL     1     -10.179  -2.826  10.779  0.00  0.00    +0.000 HD
ENDBRANCH   6  14
BRANCH   1  26
ATOM     26  N   UNL     1     -10.667  -7.685  17.983  0.00  0.00    +0.000 N 
ATOM     27  H   UNL     1     -11.438  -8.342  18.072  0.00  0.00    +0.000 HD
BRANCH  26  29
ATOM     28  O   UNL     1      -8.204  -7.376  17.600  0.00  0.00    +0.000 OA
ATOM     29  S   UNL     1      -9.127  -8.276  18.258  0.00  0.00    +0.000 S 
ATOM     30  O   UNL     1      -8.987  -8.570  19.669  0.00  0.00    +0.000 OA
BRANCH  29  31
ATOM     31  C   UNL     1      -9.084  -9.805  17.377  0.00  0.00    +0.000 A 
ATOM     32  C   UNL     1      -8.844 -11.006  18.057  0.00  0.00    +0.000 A 
ATOM     33  C   UNL     1      -8.727 -12.194  17.329  0.00  0.00    +0.000 A 
ATOM     34  C   UNL     1      -8.844 -12.175  15.940  0.00  0.00    +0.000 A 
ATOM     35 CL   UNL     1      -8.669 -13.636  15.049  0.00  0.00    +0.000 Cl
ATOM     36  C   UNL     1      -9.098 -10.982  15.267  0.00  0.00    +0.000 A 
ATOM     37  C   UNL     1      -9.215  -9.797  15.994  0.00  0.00    +0.000 A 
ATOM     38  F   UNL     1      -9.475  -8.664  15.328  0.00  0.00    +0.000 F 
ATOM     39  H   UNL     1      -8.733 -11.022  19.139  0.00  0.00    +0.000 HD
ATOM     40  H   UNL     1      -8.525 -13.127  17.854  0.00  0.00    +0.000 HD
ATOM     41  H   UNL     1      -9.194 -10.958  14.185  0.00  0.00    +0.000 HD
ENDBRANCH  29  31
ENDBRANCH  26  29
ENDBRANCH   1  26
TORSDOF 4
ENDMDL
MODEL 5
REMARK VINA RESULT:   -10.031      5.327      9.510
REMARK INTER + INTRA:         -12.763
REMARK INTER:                 -12.091
REMARK INTRA:                  -0.671
REMARK UNBOUND:                -0.386
REMARK  Name = 
REMARK  4 active torsions:
REMARK  status: ('A' for Active; 'I' for Inactive)
REMARK    1  A    between atoms: S_2  and  N_4
REMARK    2  A    between atoms: S_2  and  C_19
REMARK    3  A    between atoms: N_4  and  C_5
REMARK    4  A    between atoms: C_10  and  C_11
REMARK                            x       y       z     vdW  Elec       q    Type
REMARK                         _______ _______ _______ _____ _____    ______ ____
ROOT
ATOM      1  C   UNL     1     -10.696  -7.551  17.455  0.00  0.00    +0.000 A 
ATOM      2  C   UNL     1      -9.989  -7.643  18.655  0.00  0.00    +0.000 A 
ATOM      3  C   UNL     1      -9.206  -8.773  18.937  0.00  0.00    +0.000 A 
ATOM      4  C   UNL     1      -9.147  -9.806  17.989  0.00  0.00    +0.000 A 
ATOM      5  N   UNL     1      -8.448 -10.988  18.011  0.00  0.00    +0.000 NA
ATOM      6  C   UNL     1      -8.736 -11.596  16.875  0.00  0.00    +0.000 A 
ATOM      7  N   UNL     1      -9.621 -10.850  16.137  0.00  0.00    +0.000 N 
ATOM      8  C   UNL     1      -9.883  -9.690  16.815  0.00  0.00    +0.000 A 
ATOM      9  C   UNL     1     -10.680  -8.585  16.513  0.00  0.00    +0.000 A 
ATOM     10  H   UNL     1     -10.031  -6.835  19.383  0.00  0.00    +0.000 HD
ATOM     11  H   UNL     1      -8.646  -8.852  19.862  0.00  0.00    +0.000 HD
ATOM     12  H   UNL     1      -9.985 -11.132  15.237  0.00  0.00    +0.000 HD
ATOM     13  H   UNL     1     -11.252  -8.530  15.595  0.00  0.00    +0.000 HD
ENDROOT
BRANCH   6  14
ATOM     14  C   UNL     1      -8.218 -12.906  16.393  0.00  0.00    +0.000 C 
ATOM     15  C   UNL     1      -8.713 -13.267  15.005  0.00  0.00    +0.000 C 
ATOM     16  C   UNL     1      -8.700 -14.774  15.047  0.00  0.00    +0.000 C 
ATOM     17  C   UNL     1      -9.114 -15.063  16.474  0.00  0.00    +0.000 C 
ATOM     18  O   UNL     1      -8.704 -13.944  17.275  0.00  0.00    +0.000 OA
ATOM     19  H   UNL     1      -7.124 -12.921  16.442  0.00  0.00    +0.000 HD
ATOM     20  H   UNL     1      -8.083 -12.853  14.211  0.00  0.00    +0.000 HD
ATOM     21  H   UNL     1      -9.738 -12.914  14.839  0.00  0.00    +0.000 HD
ATOM     22  H   UNL     1      -7.684 -15.143  14.870  0.00  0.00    +0.000 HD
ATOM     23  H   UNL     1      -9.363 -15.238  14.312  0.00  0.00    +0.000 HD
ATOM     24  H   UNL     1      -8.653 -15.977  16.861  0.00  0.00    +0.000 HD
ATOM     25  H   UNL     1     -10.201 -15.158  16.563  0.00  0.00    +0.000 HD
ENDBRANCH   6  14
BRANCH   1  26
ATOM     26  N   UNL     1     -11.496  -6.418  17.187  0.00  0.00    +0.000 N 
ATOM     27  H   UNL     1     -12.335  -6.232  17.733  0.00  0.00    +0.000 HD
BRANCH  26  29
ATOM     28  O   UNL     1      -9.577  -5.488  15.863  0.00  0.00    +0.000 OA
ATOM     29  S   UNL     1     -10.960  -5.199  16.177  0.00  0.00    +0.000 S 
ATOM     30  O   UNL     1     -11.930  -5.011  15.119  0.00  0.00    +0.000 OA
BRANCH  29  31
ATOM     31  C   UNL     1     -10.974  -3.754  17.192  0.00  0.00    +0.000 A 
ATOM     32  C   UNL     1     -11.422  -3.826  18.517  0.00  0.00    +0.000 A 
ATOM     33  C   UNL     1     -11.508  -2.655  19.277  0.00  0.00    +0.000 A 
ATOM     34  C   UNL     1     -11.154  -1.431  18.712  0.00  0.00    +0.000 A 
ATOM     35 CL   UNL     1     -11.290   0.009  19.642  0.00  0.00    +0.000 Cl
ATOM     36  C   UNL     1     -10.694  -1.363  17.397  0.00  0.00    +0.000 A 
ATOM     37  C   UNL     1     -10.609  -2.532  16.641  0.00  0.00    +0.000 A 
ATOM     38  F   UNL     1     -10.147  -2.446  15.386  0.00  0.00    +0.000 F 
ATOM     39  H   UNL     1     -11.718  -4.777  18.955  0.00  0.00    +0.000 HD
ATOM     40  H   UNL     1     -11.871  -2.706  20.302  0.00  0.00    +0.000 HD
ATOM     41  H   UNL     1     -10.413  -0.415  16.950  0.00  0.00    +0.000 HD
ENDBRANCH  29  31
ENDBRANCH  26  29
ENDBRANCH   1  26
TORSDOF 4
ENDMDL
MODEL 6
REMARK VINA RESULT:   -10.010      5.380      9.041
REMARK INTER + INTRA:         -12.737
REMARK INTER:                 -12.406
REMARK INTRA:                  -0.331
REMARK UNBOUND:                -0.386
REMARK  Name = 
REMARK  4 active torsions:
REMARK  status: ('A' for Active; 'I' for Inactive)
REMARK    1  A    between atoms: S_2  and  N_4
REMARK    2  A    between atoms: S_2  and  C_19
REMARK    3  A    between atoms: N_4  and  C_5
REMARK    4  A    between atoms: C_10  and  C_11
REMARK                            x       y       z     vdW  Elec       q    Type
REMARK                         _______ _______ _______ _____ _____    ______ ____
ROOT
ATOM      1  C   UNL     1     -10.780  -7.384  17.600  0.00  0.00    +0.000 A 
ATOM      2  C   UNL     1     -10.124  -7.541  18.821  0.00  0.00    +0.000 A 
ATOM      3  C   UNL     1      -9.341  -8.680  19.069  0.00  0.00    +0.000 A 
ATOM      4  C   UNL     1      -9.232  -9.653  18.066  0.00  0.00    +0.000 A 
ATOM      5  N   UNL     1      -8.521 -10.829  18.047  0.00  0.00    +0.000 NA
ATOM      6  C   UNL     1      -8.755 -11.370  16.866  0.00  0.00    +0.000 A 
ATOM      7  N   UNL     1      -9.616 -10.589  16.136  0.00  0.00    +0.000 N 
ATOM      8  C   UNL     1      -9.919  -9.474  16.870  0.00  0.00    +0.000 A 
ATOM      9  C   UNL     1     -10.714  -8.360  16.600  0.00  0.00    +0.000 A 
ATOM     10  H   UNL     1     -10.205  -6.779  19.593  0.00  0.00    +0.000 HD
ATOM     11  H   UNL     1      -8.820  -8.809  20.011  0.00  0.00    +0.000 HD
ATOM     12  H   UNL     1      -9.939 -10.820  15.206  0.00  0.00    +0.000 HD
ATOM     13  H   UNL     1     -11.248  -8.254  15.664  0.00  0.00    +0.000 HD
ENDROOT
BRANCH   6  14
ATOM     14  C   UNL     1      -8.203 -12.646  16.330  0.00  0.00    +0.000 C 
ATOM     15  C   UNL     1      -8.772 -13.016  14.972  0.00  0.00    +0.000 C 
ATOM     16  C   UNL     1      -8.678 -14.520  14.991  0.00  0.00    +0.000 C 
ATOM     17  C   UNL     1      -8.977 -14.847  16.438  0.00  0.00    +0.000 C 
ATOM     18  O   UNL     1      -8.573 -13.718  17.226  0.00  0.00    +0.000 OA
ATOM     19  H   UNL     1      -7.109 -12.603  16.304  0.00  0.00    +0.000 HD
ATOM     20  H   UNL     1      -8.221 -12.559  14.145  0.00  0.00    +0.000 HD
ATOM     21  H   UNL     1      -9.824 -12.715  14.882  0.00  0.00    +0.000 HD
ATOM     22  H   UNL     1      -7.657 -14.832  14.739  0.00  0.00    +0.000 HD
ATOM     23  H   UNL     1      -9.363 -15.010  14.295  0.00  0.00    +0.000 HD
ATOM     24  H   UNL     1      -8.444 -15.740  16.778  0.00  0.00    +0.000 HD
ATOM     25  H   UNL     1     -10.049 -15.001  16.598  0.00  0.00    +0.000 HD
ENDBRANCH   6  14
BRANCH   1  26
ATOM     26  N   UNL     1     -11.582  -6.243  17.366  0.00  0.00    +0.000 N 
ATOM     27  H   UNL     1     -12.594  -6.323  17.298  0.00  0.00    +0.000 HD
BRANCH  26  29
ATOM     28  O   UNL     1     -11.896  -3.903  18.220  0.00  0.00    +0.000 OA
ATOM     29  S   UNL     1     -10.945  -4.702  17.476  0.00  0.00    +0.000 S 
ATOM     30  O   UNL     1      -9.567  -4.797  17.911  0.00  0.00    +0.000 OA
BRANCH  29  31
ATOM     31  C   UNL     1     -10.950  -4.108  15.814  0.00  0.00    +0.000 A 
ATOM     32  C   UNL     1     -11.805  -3.064  15.439  0.00  0.00    +0.000 A 
ATOM     33  C   UNL     1     -11.857  -2.667  14.099  0.00  0.00    +0.000 A 
ATOM     34  C   UNL     1     -11.066  -3.313  13.150  0.00  0.00    +0.000 A 
ATOM     35 CL   UNL     1     -11.157  -2.840  11.499  0.00  0.00    +0.000 Cl
ATOM     36  C   UNL     1     -10.204  -4.342  13.527  0.00  0.00    +0.000 A 
ATOM     37  C   UNL     1     -10.154  -4.736  14.864  0.00  0.00    +0.000 A 
ATOM     38  F   UNL     1      -9.306  -5.716  15.207  0.00  0.00    +0.000 F 
ATOM     39  H   UNL     1     -12.438  -2.571  16.174  0.00  0.00    +0.000 HD
ATOM     40  H   UNL     1     -12.533  -1.867  13.803  0.00  0.00    +0.000 HD
ATOM     41  H   UNL     1      -9.582  -4.848  12.796  0.00  0.00    +0.000 HD
ENDBRANCH  29  31
ENDBRANCH  26  29
ENDBRANCH   1  26
TORSDOF 4
ENDMDL
MODEL 7
REMARK VINA RESULT:    -9.883      2.180      3.002
REMARK INTER + INTRA:         -12.581
REMARK INTER:                 -12.462
REMARK INTRA:                  -0.118
REMARK UNBOUND:                -0.386
REMARK  Name = 
REMARK  4 active torsions:
REMARK  status: ('A' for Active; 'I' for Inactive)
REMARK    1  A    between atoms: S_2  and  N_4
REMARK    2  A    between atoms: S_2  and  C_19
REMARK    3  A    between atoms: N_4  and  C_5
REMARK    4  A    between atoms: C_10  and  C_11
REMARK                            x       y       z     vdW  Elec       q    Type
REMARK                         _______ _______ _______ _____ _____    ______ ____
ROOT
ATOM      1  C   UNL     1      -8.719  -6.848  16.925  0.00  0.00    +0.000 A 
ATOM      2  C   UNL     1      -9.824  -6.030  16.684  0.00  0.00    +0.000 A 
ATOM      3  C   UNL     1     -10.088  -4.925  17.508  0.00  0.00    +0.000 A 
ATOM      4  C   UNL     1      -9.218  -4.659  18.576  0.00  0.00    +0.000 A 
ATOM      5  N   UNL     1      -9.237  -3.643  19.500  0.00  0.00    +0.000 NA
ATOM      6  C   UNL     1      -8.194  -3.851  20.282  0.00  0.00    +0.000 A 
ATOM      7  N   UNL     1      -7.520  -4.985  19.902  0.00  0.00    +0.000 N 
ATOM      8  C   UNL     1      -8.139  -5.509  18.799  0.00  0.00    +0.000 A 
ATOM      9  C   UNL     1      -7.861  -6.622  18.005  0.00  0.00    +0.000 A 
ATOM     10  H   UNL     1     -10.491  -6.236  15.849  0.00  0.00    +0.000 HD
ATOM     11  H   UNL     1     -10.938  -4.278  17.326  0.00  0.00    +0.000 HD
ATOM     12  H   UNL     1      -6.696  -5.337  20.370  0.00  0.00    +0.000 HD
ATOM     13  H   UNL     1      -7.021  -7.273  18.213  0.00  0.00    +0.000 HD
ENDROOT
BRANCH   6  14
ATOM     14  C   UNL     1      -7.747  -3.020  21.435  0.00  0.00    +0.000 C 
ATOM     15  C   UNL     1      -8.114  -3.622  22.779  0.00  0.00    +0.000 C 
ATOM     16  C   UNL     1      -8.243  -2.397  23.648  0.00  0.00    +0.000 C 
ATOM     17  C   UNL     1      -8.839  -1.383  22.695  0.00  0.00    +0.000 C 
ATOM     18  O   UNL     1      -8.421  -1.743  21.369  0.00  0.00    +0.000 OA
ATOM     19  H   UNL     1      -6.671  -2.826  21.366  0.00  0.00    +0.000 HD
ATOM     20  H   UNL     1      -7.364  -4.331  23.143  0.00  0.00    +0.000 HD
ATOM     21  H   UNL     1      -9.077  -4.144  22.736  0.00  0.00    +0.000 HD
ATOM     22  H   UNL     1      -7.251  -2.065  23.975  0.00  0.00    +0.000 HD
ATOM     23  H   UNL     1      -8.858  -2.554  24.538  0.00  0.00    +0.000 HD
ATOM     24  H   UNL     1      -8.509  -0.363  22.917  0.00  0.00    +0.000 HD
ATOM     25  H   UNL     1      -9.933  -1.408  22.719  0.00  0.00    +0.000 HD
ENDBRANCH   6  14
BRANCH   1  26
ATOM     26  N   UNL     1      -8.473  -7.970  16.101  0.00  0.00    +0.000 N 
ATOM     27  H   UNL     1      -7.526  -8.207  15.814  0.00  0.00    +0.000 HD
BRANCH  26  29
ATOM     28  O   UNL     1     -10.855  -8.657  16.497  0.00  0.00    +0.000 OA
ATOM     29  S   UNL     1      -9.665  -9.103  15.805  0.00  0.00    +0.000 S 
ATOM     30  O   UNL     1      -9.701  -9.379  14.384  0.00  0.00    +0.000 OA
BRANCH  29  31
ATOM     31  C   UNL     1      -9.097 -10.559  16.627  0.00  0.00    +0.000 A 
ATOM     32  C   UNL     1      -8.842 -11.727  15.900  0.00  0.00    +0.000 A 
ATOM     33  C   UNL     1      -8.477 -12.893  16.580  0.00  0.00    +0.000 A 
ATOM     34  C   UNL     1      -8.374 -12.885  17.970  0.00  0.00    +0.000 A 
ATOM     35 CL   UNL     1      -7.954 -14.330  18.803  0.00  0.00    +0.000 Cl
ATOM     36  C   UNL     1      -8.614 -11.717  18.692  0.00  0.00    +0.000 A 
ATOM     37  C   UNL     1      -8.977 -10.555  18.012  0.00  0.00    +0.000 A 
ATOM     38  F   UNL     1      -9.186  -9.439  18.723  0.00  0.00    +0.000 F 
ATOM     39  H   UNL     1      -8.940 -11.743  14.816  0.00  0.00    +0.000 HD
ATOM     40  H   UNL     1      -8.294 -13.808  16.018  0.00  0.00    +0.000 HD
ATOM     41  H   UNL     1      -8.533 -11.700  19.774  0.00  0.00    +0.000 HD
ENDBRANCH  29  31
ENDBRANCH  26  29
ENDBRANCH   1  26
TORSDOF 4
ENDMDL
MODEL 8
REMARK VINA RESULT:    -9.790      2.084      2.420
REMARK INTER + INTRA:         -12.465
REMARK INTER:                 -11.801
REMARK INTRA:                  -0.665
REMARK UNBOUND:                -0.386
REMARK  Name = 
REMARK  4 active torsions:
REMARK  status: ('A' for Active; 'I' for Inactive)
REMARK    1  A    between atoms: S_2  and  N_4
REMARK    2  A    between atoms: S_2  and  C_19
REMARK    3  A    between atoms: N_4  and  C_5
REMARK    4  A    between atoms: C_10  and  C_11
REMARK                            x       y       z     vdW  Elec       q    Type
REMARK                         _______ _______ _______ _____ _____    ______ ____
ROOT
ATOM      1  C   UNL     1      -8.993  -7.167  18.849  0.00  0.00    +0.000 A 
ATOM      2  C   UNL     1      -7.729  -7.179  19.442  0.00  0.00    +0.000 A 
ATOM      3  C   UNL     1      -7.209  -6.018  20.036  0.00  0.00    +0.000 A 
ATOM      4  C   UNL     1      -7.984  -4.849  20.023  0.00  0.00    +0.000 A 
ATOM      5  N   UNL     1      -7.721  -3.608  20.548  0.00  0.00    +0.000 NA
ATOM      6  C   UNL     1      -8.777  -2.868  20.266  0.00  0.00    +0.000 A 
ATOM      7  N   UNL     1      -9.700  -3.592  19.553  0.00  0.00    +0.000 N 
ATOM      8  C   UNL     1      -9.229  -4.869  19.403  0.00  0.00    +0.000 A 
ATOM      9  C   UNL     1      -9.767  -6.003  18.793  0.00  0.00    +0.000 A 
ATOM     10  H   UNL     1      -7.136  -8.090  19.456  0.00  0.00    +0.000 HD
ATOM     11  H   UNL     1      -6.232  -6.018  20.507  0.00  0.00    +0.000 HD
ATOM     12  H   UNL     1     -10.580  -3.218  19.223  0.00  0.00    +0.000 HD
ATOM     13  H   UNL     1     -10.734  -5.983  18.307  0.00  0.00    +0.000 HD
ENDROOT
BRANCH   6  14
ATOM     14  C   UNL     1      -9.009  -1.443  20.632  0.00  0.00    +0.000 C 
ATOM     15  C   UNL     1     -10.118  -1.263  21.652  0.00  0.00    +0.000 C 
ATOM     16  C   UNL     1     -10.630   0.115  21.320  0.00  0.00    +0.000 C 
ATOM     17  C   UNL     1     -10.502   0.156  19.812  0.00  0.00    +0.000 C 
ATOM     18  O   UNL     1      -9.431  -0.728  19.448  0.00  0.00    +0.000 OA
ATOM     19  H   UNL     1      -8.074  -0.984  20.976  0.00  0.00    +0.000 HD
ATOM     20  H   UNL     1      -9.763  -1.354  22.683  0.00  0.00    +0.000 HD
ATOM     21  H   UNL     1     -10.920  -1.997  21.507  0.00  0.00    +0.000 HD
ATOM     22  H   UNL     1      -9.981   0.874  21.772  0.00  0.00    +0.000 HD
ATOM     23  H   UNL     1     -11.652   0.296  21.662  0.00  0.00    +0.000 HD
ATOM     24  H   UNL     1     -10.285   1.163  19.443  0.00  0.00    +0.000 HD
ATOM     25  H   UNL     1     -11.413  -0.204  19.324  0.00  0.00    +0.000 HD
ENDBRANCH   6  14
BRANCH   1  26
ATOM     26  N   UNL     1      -9.501  -8.334  18.236  0.00  0.00    +0.000 N 
ATOM     27  H   UNL     1      -9.988  -9.040  18.784  0.00  0.00    +0.000 HD
BRANCH  26  29
ATOM     28  O   UNL     1     -10.950  -8.198  16.190  0.00  0.00    +0.000 OA
ATOM     29  S   UNL     1      -9.581  -8.473  16.572  0.00  0.00    +0.000 S 
ATOM     30  O   UNL     1      -8.491  -7.720  15.990  0.00  0.00    +0.000 OA
BRANCH  29  31
ATOM     31  C   UNL     1      -9.286 -10.186  16.263  0.00  0.00    +0.000 A 
ATOM     32  C   UNL     1      -9.085 -11.071  17.329  0.00  0.00    +0.000 A 
ATOM     33  C   UNL     1      -8.766 -12.407  17.061  0.00  0.00    +0.000 A 
ATOM     34  C   UNL     1      -8.647 -12.843  15.742  0.00  0.00    +0.000 A 
ATOM     35 CL   UNL     1      -8.225 -14.479  15.420  0.00  0.00    +0.000 Cl
ATOM     36  C   UNL     1      -8.862 -11.963  14.682  0.00  0.00    +0.000 A 
ATOM     37  C   UNL     1      -9.180 -10.632  14.952  0.00  0.00    +0.000 A 
ATOM     38  F   UNL     1      -9.400  -9.808  13.918  0.00  0.00    +0.000 F 
ATOM     39  H   UNL     1      -9.158 -10.730  18.359  0.00  0.00    +0.000 HD
ATOM     40  H   UNL     1      -8.594 -13.093  17.888  0.00  0.00    +0.000 HD
ATOM     41  H   UNL     1      -8.774 -12.295  13.652  0.00  0.00    +0.000 HD
ENDBRANCH  29  31
ENDBRANCH  26  29
ENDBRANCH   1  26
TORSDOF 4
ENDMDL
MODEL 9
REMARK VINA RESULT:    -9.732      4.263      9.126
REMARK INTER + INTRA:         -12.394
REMARK INTER:                 -11.711
REMARK INTRA:                  -0.684
REMARK UNBOUND:                -0.386
REMARK  Name = 
REMARK  4 active torsions:
REMARK  status: ('A' for Active; 'I' for Inactive)
REMARK    1  A    between atoms: S_2  and  N_4
REMARK    2  A    between atoms: S_2  and  C_19
REMARK    3  A    between atoms: N_4  and  C_5
REMARK    4  A    between atoms: C_10  and  C_11
REMARK                            x       y       z     vdW  Elec       q    Type
REMARK                         _______ _______ _______ _____ _____    ______ ____
ROOT
ATOM      1  C   UNL     1      -8.632  -5.525  18.690  0.00  0.00    +0.000 A 
ATOM      2  C   UNL     1      -8.379  -6.150  19.913  0.00  0.00    +0.000 A 
ATOM      3  C   UNL     1      -8.454  -7.548  20.029  0.00  0.00    +0.000 A 
ATOM      4  C   UNL     1      -8.786  -8.300  18.893  0.00  0.00    +0.000 A 
ATOM      5  N   UNL     1      -8.900  -9.660  18.736  0.00  0.00    +0.000 NA
ATOM      6  C   UNL     1      -9.228  -9.849  17.471  0.00  0.00    +0.000 A 
ATOM      7  N   UNL     1      -9.353  -8.647  16.818  0.00  0.00    +0.000 N 
ATOM      8  C   UNL     1      -9.053  -7.642  17.697  0.00  0.00    +0.000 A 
ATOM      9  C   UNL     1      -9.000  -6.255  17.555  0.00  0.00    +0.000 A 
ATOM     10  H   UNL     1      -8.115  -5.562  20.789  0.00  0.00    +0.000 HD
ATOM     11  H   UNL     1      -8.253  -8.045  20.971  0.00  0.00    +0.000 HD
ATOM     12  H   UNL     1      -9.608  -8.557  15.844  0.00  0.00    +0.000 HD
ATOM     13  H   UNL     1      -9.226  -5.770  16.614  0.00  0.00    +0.000 HD
ENDROOT
BRANCH   6  14
ATOM     14  C   UNL     1      -9.451 -11.148  16.777  0.00  0.00    +0.000 C 
ATOM     15  C   UNL     1      -8.631 -12.283  17.361  0.00  0.00    +0.000 C 
ATOM     16  C   UNL     1      -8.450 -13.187  16.168  0.00  0.00    +0.000 C 
ATOM     17  C   UNL     1      -8.311 -12.199  15.030  0.00  0.00    +0.000 C 
ATOM     18  O   UNL     1      -9.027 -11.012  15.401  0.00  0.00    +0.000 OA
ATOM     19  H   UNL     1     -10.519 -11.392  16.767  0.00  0.00    +0.000 HD
ATOM     20  H   UNL     1      -9.129 -12.774  18.202  0.00  0.00    +0.000 HD
ATOM     21  H   UNL     1      -7.651 -11.933  17.709  0.00  0.00    +0.000 HD
ATOM     22  H   UNL     1      -9.347 -13.800  16.025  0.00  0.00    +0.000 HD
ATOM     23  H   UNL     1      -7.591 -13.858  16.254  0.00  0.00    +0.000 HD
ATOM     24  H   UNL     1      -8.716 -12.590  14.091  0.00  0.00    +0.000 HD
ATOM     25  H   UNL     1      -7.264 -11.922  14.867  0.00  0.00    +0.000 HD
ENDBRANCH   6  14
BRANCH   1  26
ATOM     26  N   UNL     1      -8.573  -4.117  18.587  0.00  0.00    +0.000 N 
ATOM     27  H   UNL     1      -7.758  -3.658  18.187  0.00  0.00    +0.000 HD
BRANCH  26  29
ATOM     28  O   UNL     1      -9.882  -2.094  17.882  0.00  0.00    +0.000 OA
ATOM     29  S   UNL     1      -9.928  -3.174  18.845  0.00  0.00    +0.000 S 
ATOM     30  O   UNL     1     -11.088  -4.037  18.926  0.00  0.00    +0.000 OA
BRANCH  29  31
ATOM     31  C   UNL     1      -9.667  -2.463  20.440  0.00  0.00    +0.000 A 
ATOM     32  C   UNL     1      -8.463  -2.678  21.121  0.00  0.00    +0.000 A 
ATOM     33  C   UNL     1      -8.310  -2.179  22.418  0.00  0.00    +0.000 A 
ATOM     34  C   UNL     1      -9.353  -1.479  23.023  0.00  0.00    +0.000 A 
ATOM     35 CL   UNL     1      -9.169  -0.894  24.630  0.00  0.00    +0.000 Cl
ATOM     36  C   UNL     1     -10.545  -1.252  22.338  0.00  0.00    +0.000 A 
ATOM     37  C   UNL     1     -10.696  -1.750  21.044  0.00  0.00    +0.000 A 
ATOM     38  F   UNL     1     -11.844  -1.506  20.397  0.00  0.00    +0.000 F 
ATOM     39  H   UNL     1      -7.654  -3.241  20.659  0.00  0.00    +0.000 HD
ATOM     40  H   UNL     1      -7.380  -2.359  22.956  0.00  0.00    +0.000 HD
ATOM     41  H   UNL     1     -11.362  -0.705  22.800  0.00  0.00    +0.000 HD
ENDBRANCH  29  31
ENDBRANCH  26  29
ENDBRANCH   1  26
TORSDOF 4
ENDMDL
