REMARK  Name = 
REMARK  6 active torsions:
REMARK  status: ('A' for Active; 'I' for Inactive)
REMARK    1  A    between atoms: C_1  and  C_2
REMARK    2  A    between atoms: C_2  and  N_3
REMARK    3  A    between atoms: C_2  and  C_22
REMARK    4  A    between atoms: N_3  and  C_4
REMARK    5  A    between atoms: N_9  and  C_10
REMARK    6  A    between atoms: C_20  and  N_21
REMARK                            x       y       z     vdW  Elec       q    Type
REMARK                         _______ _______ _______ _____ _____    ______ ____
ROOT
ATOM      1  C   UNL     1      -0.707   0.886  -0.762  0.00  0.00    +0.000 A 
ATOM      2  N   UNL     1      -1.989   0.719  -0.404  0.00  0.00    +0.000 NA
ATOM      3  C   UNL     1      -2.218   0.060   0.738  0.00  0.00    +0.000 A 
ATOM      4  N   UNL     1      -1.289  -0.463   1.550  0.00  0.00    +0.000 NA
ATOM      5  C   UNL     1      -0.011  -0.339   1.164  0.00  0.00    +0.000 A 
ATOM      6  N   UNL     1       0.994  -0.935   1.992  0.00  0.00    +0.000 N 
ATOM      7  C   UNL     1       0.356   0.383   0.017  0.00  0.00    +0.000 A 
ATOM      8  H   UNL     1      -3.252  -0.052   1.034  0.00  0.00    +0.000 HD
ATOM      9  H   UNL     1       1.770  -1.115   1.347  0.00  0.00    +0.000 HD
ENDROOT
BRANCH   6  10
ATOM     10  C   UNL     1       0.732  -2.140   2.724  0.00  0.00    +0.000 A 
ATOM     11  C   UNL     1      -0.007  -3.196   2.171  0.00  0.00    +0.000 A 
ATOM     12  C   UNL     1      -0.125  -4.418   2.840  0.00  0.00    +0.000 A 
ATOM     13  C   UNL     1       0.573  -4.645   4.024  0.00  0.00    +0.000 A 
ATOM     14  C   UNL     1       1.297  -3.607   4.616  0.00  0.00    +0.000 A 
ATOM     15  C   UNL     1       1.943  -3.767   5.845  0.00  0.00    +0.000 A 
ATOM     16  C   UNL     1       2.419  -2.647   6.516  0.00  0.00    +0.000 A 
ATOM     17  C   UNL     1       2.321  -1.401   5.909  0.00  0.00    +0.000 A 
ATOM     18  N   UNL     1       1.841  -1.297   4.660  0.00  0.00    +0.000 N 
ATOM     19  C   UNL     1       1.319  -2.339   3.988  0.00  0.00    +0.000 A 
ATOM     20  H   UNL     1      -0.535  -3.073   1.226  0.00  0.00    +0.000 HD
ATOM     21  H   UNL     1      -0.768  -5.197   2.432  0.00  0.00    +0.000 HD
ATOM     22  H   UNL     1       0.484  -5.616   4.512  0.00  0.00    +0.000 HD
ATOM     23  H   UNL     1       2.028  -4.751   6.307  0.00  0.00    +0.000 HD
ATOM     24  H   UNL     1       2.823  -2.747   7.522  0.00  0.00    +0.000 HD
ATOM     25  H   UNL     1       2.600  -0.478   6.408  0.00  0.00    +0.000 HD
ATOM     26  H   UNL     1       1.770  -0.385   4.202  0.00  0.00    +0.000 HD
ENDBRANCH   6  10
BRANCH   7  27
ATOM     27  N   UNL     1       1.714   0.526  -0.410  0.00  0.00    +0.000 N 
ATOM     28  H   UNL     1       2.132  -0.369  -0.649  0.00  0.00    +0.000 HD
ATOM     29  H   UNL     1       1.689   1.073  -1.277  0.00  0.00    +0.000 HD
ENDBRANCH   7  27
BRANCH   1  30
ATOM     30  N   UNL     1      -0.387   1.562  -1.965  0.00  0.00    +0.000 N 
ATOM     31  H   UNL     1       0.014   2.462  -1.704  0.00  0.00    +0.000 HD
BRANCH  30  32
ATOM     32  C   UNL     1      -1.513   1.769  -2.900  0.00  0.00    +0.000 C 
ATOM     33  H   UNL     1      -2.388   2.165  -2.367  0.00  0.00    +0.000 HD
BRANCH  32  34
ATOM     34  C   UNL     1      -1.106   2.794  -3.958  0.00  0.00    +0.000 A 
ATOM     35  C   UNL     1      -1.911   3.920  -4.201  0.00  0.00    +0.000 A 
ATOM     36  C   UNL     1      -1.565   4.834  -5.194  0.00  0.00    +0.000 A 
ATOM     37  C   UNL     1      -0.420   4.648  -5.955  0.00  0.00    +0.000 A 
ATOM     38  C   UNL     1       0.388   3.536  -5.732  0.00  0.00    +0.000 A 
ATOM     39  C   UNL     1       0.046   2.614  -4.741  0.00  0.00    +0.000 A 
ATOM     40  H   UNL     1      -2.822   4.083  -3.625  0.00  0.00    +0.000 HD
ATOM     41  H   UNL     1      -2.204   5.705  -5.376  0.00  0.00    +0.000 HD
ATOM     42  H   UNL     1      -0.159   5.361  -6.734  0.00  0.00    +0.000 HD
ATOM     43  H   UNL     1       1.279   3.379  -6.336  0.00  0.00    +0.000 HD
ATOM     44  H   UNL     1       0.685   1.747  -4.583  0.00  0.00    +0.000 HD
ENDBRANCH  32  34
BRANCH  32  45
ATOM     45  C   UNL     1      -1.887   0.447  -3.585  0.00  0.00    +0.000 C 
ATOM     46  H   UNL     1      -2.290  -0.279  -2.870  0.00  0.00    +0.000 HD
ATOM     47  H   UNL     1      -1.018  -0.023  -4.059  0.00  0.00    +0.000 HD
ATOM     48  H   UNL     1      -2.648   0.602  -4.358  0.00  0.00    +0.000 HD
ENDBRANCH  32  45
ENDBRANCH  30  32
ENDBRANCH   1  30
TORSDOF 6
