
 OpenBabel01112423063D

 54 57  0  0  1  0  0  0  0  0999 V2000
    0.7115   -2.1201   -2.1320 C   0  0  0  0  0  0  0  0  0  0  0  0
    2.0577   -2.1298   -1.6696 O   0  0  0  0  0  0  0  0  0  0  0  0
    2.8395   -1.1266   -2.3134 C   0  0  0  0  0  0  0  0  0  0  0  0
    4.2615   -1.1896   -1.7736 C   0  0  0  0  0  0  0  0  0  0  0  0
    4.9202   -2.5416   -2.0491 C   0  0  0  0  0  0  0  0  0  0  0  0
    6.2666   -2.5340   -1.4669 N   0  0  0  0  0  0  0  0  0  0  0  0
    7.0124   -3.7072   -1.6438 C   0  0  0  0  0  0  0  0  0  0  0  0
    6.7940   -4.4230   -2.7602 N   0  0  0  0  0  0  0  0  0  0  0  0
    7.6416   -5.4294   -2.9903 C   0  0  0  0  0  0  0  0  0  0  0  0
    8.6716   -5.7510   -2.2101 N   0  3  0  0  0  0  0  0  0  0  0  0
    8.9177   -5.0958   -1.0705 C   0  0  0  0  0  0  0  0  0  0  0  0
    9.9367   -5.5060   -0.2043 N   0  0  0  0  0  0  0  0  0  0  0  0
   10.5906   -6.8261   -0.2357 C   0  0  3  0  0  0  0  0  0  0  0  0
   11.5837   -6.9396   -1.4181 C   0  0  0  0  0  0  0  0  0  0  0  0
   12.1639   -8.3600   -1.4918 C   0  0  3  0  0  0  0  0  0  0  0  0
   12.9765   -8.6297   -0.2159 C   0  0  0  0  0  0  0  0  0  0  0  0
   12.0716   -8.4845    1.0190 C   0  0  3  0  0  0  0  0  0  0  0  0
   10.9718   -9.5557    0.9228 C   0  0  0  0  0  0  0  0  0  0  0  0
   10.1308   -9.3215   -0.3369 C   0  0  3  0  0  0  0  0  0  0  0  0
   11.0132   -9.3760   -1.5955 C   0  0  0  0  0  0  0  0  0  0  0  0
    9.5010   -7.9355   -0.2356 C   0  0  0  0  0  0  0  0  0  0  0  0
   11.4381   -7.0652    1.0483 C   0  0  0  0  0  0  0  0  0  0  0  0
    8.0354   -4.0412   -0.7167 C   0  0  0  0  0  0  0  0  0  0  0  0
    8.2828   -3.2672    0.4463 N   0  0  0  0  0  0  0  0  0  0  0  0
    0.1571   -2.8929   -1.5929 H   0  0  0  0  0  0  0  0  0  0  0  0
    0.6769   -2.3465   -3.2020 H   0  0  0  0  0  0  0  0  0  0  0  0
    0.2441   -1.1506   -1.9350 H   0  0  0  0  0  0  0  0  0  0  0  0
    2.4130   -0.1396   -2.1011 H   0  0  0  0  0  0  0  0  0  0  0  0
    2.8342   -1.2895   -3.3967 H   0  0  0  0  0  0  0  0  0  0  0  0
    4.2433   -1.0173   -0.6898 H   0  0  0  0  0  0  0  0  0  0  0  0
    4.8605   -0.3864   -2.2197 H   0  0  0  0  0  0  0  0  0  0  0  0
    4.9568   -2.7112   -3.1323 H   0  0  0  0  0  0  0  0  0  0  0  0
    4.3330   -3.3485   -1.5936 H   0  0  0  0  0  0  0  0  0  0  0  0
    6.2550   -2.2150   -0.5081 H   0  0  0  0  0  0  0  0  0  0  0  0
    7.4883   -6.0292   -3.8777 H   0  0  0  0  0  0  0  0  0  0  0  0
    9.2577   -6.5100   -2.4995 H   0  0  0  0  0  0  0  0  0  0  0  0
   10.5232   -4.7288    0.1074 H   0  0  0  0  0  0  0  0  0  0  0  0
   12.3997   -6.2141   -1.2883 H   0  0  0  0  0  0  0  0  0  0  0  0
   11.1348   -6.6884   -2.3812 H   0  0  0  0  0  0  0  0  0  0  0  0
   12.8145   -8.4468   -2.3692 H   0  0  0  0  0  0  0  0  0  0  0  0
   13.8213   -7.9361   -0.1499 H   0  0  0  0  0  0  0  0  0  0  0  0
   13.3999   -9.6431   -0.2560 H   0  0  0  0  0  0  0  0  0  0  0  0
   12.6608   -8.6473    1.9283 H   0  0  0  0  0  0  0  0  0  0  0  0
   10.3336   -9.5202    1.8141 H   0  0  0  0  0  0  0  0  0  0  0  0
   11.4154  -10.5582    0.8884 H   0  0  0  0  0  0  0  0  0  0  0  0
    9.3400  -10.0767   -0.4040 H   0  0  0  0  0  0  0  0  0  0  0  0
   10.4076   -9.1613   -2.4863 H   0  0  0  0  0  0  0  0  0  0  0  0
   11.4164  -10.3869   -1.7209 H   0  0  0  0  0  0  0  0  0  0  0  0
    8.9032   -7.8589    0.6843 H   0  0  0  0  0  0  0  0  0  0  0  0
    8.7834   -7.8348   -1.0515 H   0  0  0  0  0  0  0  0  0  0  0  0
   12.2328   -6.3117    1.1303 H   0  0  0  0  0  0  0  0  0  0  0  0
   10.8170   -6.9551    1.9466 H   0  0  0  0  0  0  0  0  0  0  0  0
    8.7813   -3.7835    1.1703 H   0  0  0  0  0  0  0  0  0  0  0  0
    7.4534   -2.8326    0.8395 H   0  0  0  0  0  0  0  0  0  0  0  0
  1  2  1  0  0  0  0
  1 25  1  0  0  0  0
  1 26  1  0  0  0  0
  1 27  1  0  0  0  0
  2  3  1  0  0  0  0
  3  4  1  0  0  0  0
  3 28  1  0  0  0  0
  3 29  1  0  0  0  0
  4  5  1  0  0  0  0
  4 30  1  0  0  0  0
  4 31  1  0  0  0  0
  5  6  1  0  0  0  0
  5 32  1  0  0  0  0
  5 33  1  0  0  0  0
  6  7  1  0  0  0  0
  6 34  1  0  0  0  0
  7  8  1  0  0  0  0
  7 23  2  0  0  0  0
  8  9  2  0  0  0  0
  9 10  1  0  0  0  0
  9 35  1  0  0  0  0
 10 11  2  0  0  0  0
 10 36  1  0  0  0  0
 11 12  1  0  0  0  0
 11 23  1  0  0  0  0
 12 13  1  0  0  0  0
 12 37  1  0  0  0  0
 13 14  1  0  0  0  0
 13 21  1  0  0  0  0
 13 22  1  0  0  0  0
 14 15  1  0  0  0  0
 14 38  1  0  0  0  0
 14 39  1  0  0  0  0
 15 16  1  0  0  0  0
 15 20  1  0  0  0  0
 15 40  1  0  0  0  0
 16 17  1  0  0  0  0
 16 41  1  0  0  0  0
 16 42  1  0  0  0  0
 17 18  1  0  0  0  0
 17 22  1  0  0  0  0
 17 43  1  0  0  0  0
 18 19  1  0  0  0  0
 18 44  1  0  0  0  0
 18 45  1  0  0  0  0
 19 20  1  0  0  0  0
 19 21  1  0  0  0  0
 19 46  1  0  0  0  0
 20 47  1  0  0  0  0
 20 48  1  0  0  0  0
 21 49  1  0  0  0  0
 21 50  1  0  0  0  0
 22 51  1  0  0  0  0
 22 52  1  0  0  0  0
 23 24  1  0  0  0  0
 24 53  1  0  0  0  0
 24 54  1  0  0  0  0
M  CHG  1  10   1
M  END
$$$$
