REMARK  Name = 
REMARK  4 active torsions:
REMARK  status: ('A' for Active; 'I' for Inactive)
REMARK    1  A    between atoms: C_1  and  C_2
REMARK    2  A    between atoms: C_7  and  N_8
REMARK    3  A    between atoms: N_8  and  C_9
REMARK    4  A    between atoms: C_22  and  N_23
REMARK                            x       y       z     vdW  Elec       q    Type
REMARK                         _______ _______ _______ _____ _____    ______ ____
ROOT
ATOM      1  C   UNL     1       0.572   0.437  -0.149  0.00  0.00    +0.000 A 
ATOM      2  N   UNL     1      -0.084   0.858  -1.263  0.00  0.00    +0.000 NA
ATOM      3  C   UNL     1      -1.406   0.617  -1.290  0.00  0.00    +0.000 A 
ATOM      4  N   UNL     1      -2.113   0.020  -0.334  0.00  0.00    +0.000 NA
ATOM      5  C   UNL     1      -1.455  -0.370   0.773  0.00  0.00    +0.000 A 
ATOM      6  N   UNL     1      -2.170  -0.990   1.821  0.00  0.00    +0.000 N 
ATOM      7  C   UNL     1      -3.442  -1.572   1.725  0.00  0.00    +0.000 A 
ATOM      8  C   UNL     1      -3.816  -2.315   0.603  0.00  0.00    +0.000 A 
ATOM      9  C   UNL     1      -5.072  -2.911   0.550  0.00  0.00    +0.000 A 
ATOM     10  C   UNL     1      -5.925  -2.762   1.632  0.00  0.00    +0.000 A 
ATOM     11 CL   UNL     1      -7.484  -3.476   1.617  0.00  0.00    +0.000 Cl
ATOM     12  C   UNL     1      -5.477  -2.033   2.722  0.00  0.00    +0.000 A 
ATOM     13  N   UNL     1      -4.253  -1.442   2.795  0.00  0.00    +0.000 NA
ATOM     14  C   UNL     1      -0.066  -0.229   0.907  0.00  0.00    +0.000 A 
ATOM     15  H   UNL     1      -1.959   0.943  -2.166  0.00  0.00    +0.000 HD
ATOM     16  H   UNL     1      -2.130  -0.451   2.682  0.00  0.00    +0.000 HD
ATOM     17  H   UNL     1      -3.134  -2.436  -0.232  0.00  0.00    +0.000 HD
ATOM     18  H   UNL     1      -5.370  -3.482  -0.321  0.00  0.00    +0.000 HD
ATOM     19  H   UNL     1      -6.106  -1.895   3.599  0.00  0.00    +0.000 HD
ENDROOT
BRANCH  14  20
ATOM     20  N   UNL     1       0.597  -0.607   2.099  0.00  0.00    +0.000 N 
ATOM     21  H   UNL     1       0.013  -1.246   2.647  0.00  0.00    +0.000 HD
ATOM     22  H   UNL     1       1.516  -1.015   1.979  0.00  0.00    +0.000 HD
ENDBRANCH  14  20
BRANCH   1  23
ATOM     23  N   UNL     1       1.948   0.762  -0.053  0.00  0.00    +0.000 N 
ATOM     24  H   UNL     1       2.440   0.133   0.567  0.00  0.00    +0.000 HD
BRANCH  23  30
ATOM     25  C   UNL     1       4.116   1.517  -0.973  0.00  0.00    +0.000 A 
ATOM     26  C   UNL     1       4.779   2.168  -2.026  0.00  0.00    +0.000 A 
ATOM     27  C   UNL     1       4.075   2.595  -3.146  0.00  0.00    +0.000 A 
ATOM     28  C   UNL     1       2.711   2.370  -3.198  0.00  0.00    +0.000 A 
ATOM     29  N   UNL     1       2.105   1.756  -2.179  0.00  0.00    +0.000 N 
ATOM     30  C   UNL     1       2.728   1.313  -1.074  0.00  0.00    +0.000 A 
ATOM     31  H   UNL     1       5.853   2.353  -1.974  0.00  0.00    +0.000 HD
ATOM     32  H   UNL     1       4.586   3.102  -3.962  0.00  0.00    +0.000 HD
ATOM     33  H   UNL     1       2.083   2.674  -4.028  0.00  0.00    +0.000 HD
ATOM     34  H   UNL     1       1.092   1.599  -2.193  0.00  0.00    +0.000 HD
BRANCH  25  35
ATOM     35  C   UNL     1       4.906   1.088   0.232  0.00  0.00    +0.000 C 
ATOM     36  H   UNL     1       5.983   1.135   0.037  0.00  0.00    +0.000 HD
ATOM     37  H   UNL     1       4.678   0.050   0.495  0.00  0.00    +0.000 HD
ATOM     38  H   UNL     1       4.683   1.740   1.081  0.00  0.00    +0.000 HD
ENDBRANCH  25  35
ENDBRANCH  23  30
ENDBRANCH   1  23
TORSDOF 4
