REMARK  Name = 
REMARK  8 active torsions:
REMARK  status: ('A' for Active; 'I' for Inactive)
REMARK    1  A    between atoms: O_1  and  C_2
REMARK    2  A    between atoms: C_6  and  C_7
REMARK    3  A    between atoms: N_8  and  C_9
REMARK    4  A    between atoms: C_12  and  N_13
REMARK    5  A    between atoms: C_14  and  C_15
REMARK    6  A    between atoms: C_19  and  O_20
REMARK    7  A    between atoms: C_21  and  O_22
REMARK    8  A    between atoms: C_25  and  O_26
REMARK                            x       y       z     vdW  Elec       q    Type
REMARK                         _______ _______ _______ _____ _____    ______ ____
ROOT
ATOM      1  C   UNL     1       1.562   2.596  -0.509  0.00  0.00    +0.000 A 
ATOM      2  C   UNL     1       1.204   1.875   0.634  0.00  0.00    +0.000 A 
ATOM      3  C   UNL     1       0.012   1.147   0.669  0.00  0.00    +0.000 A 
ATOM      4  C   UNL     1      -0.892   1.246  -0.392  0.00  0.00    +0.000 A 
ATOM      5  C   UNL     1      -0.633   2.137  -1.436  0.00  0.00    +0.000 A 
ATOM      6  C   UNL     1       0.601   2.794  -1.496  0.00  0.00    +0.000 A 
ATOM      7  H   UNL     1       1.902   1.791   1.465  0.00  0.00    +0.000 HD
ATOM      8  H   UNL     1      -0.141   0.502   1.528  0.00  0.00    +0.000 HD
ATOM      9  H   UNL     1      -1.339   2.309  -2.249  0.00  0.00    +0.000 HD
ATOM     10  H   UNL     1       0.832   3.446  -2.337  0.00  0.00    +0.000 HD
ENDROOT
BRANCH   4  11
ATOM     11  N   UNL     1      -2.051   0.465  -0.485  0.00  0.00    +0.000 N 
ATOM     12  C   UNL     1      -2.346  -0.544   0.253  0.00  0.00    +0.000 C 
ATOM     13  H   UNL     1      -2.695   0.694  -1.258  0.00  0.00    +0.000 HD
ATOM     14  H   UNL     1      -1.663  -0.867   1.053  0.00  0.00    +0.000 HD
BRANCH  12  15
ATOM     15  C   UNL     1      -3.583  -1.320   0.058  0.00  0.00    +0.000 A 
ATOM     16  C   UNL     1      -3.841  -2.400   0.907  0.00  0.00    +0.000 A 
ATOM     17  C   UNL     1      -5.020  -3.140   0.757  0.00  0.00    +0.000 A 
ATOM     18  C   UNL     1      -5.944  -2.812  -0.241  0.00  0.00    +0.000 A 
ATOM     19  C   UNL     1      -5.676  -1.745  -1.088  0.00  0.00    +0.000 A 
ATOM     20  C   UNL     1      -4.506  -1.007  -0.944  0.00  0.00    +0.000 A 
ATOM     21  H   UNL     1      -3.145  -2.682   1.695  0.00  0.00    +0.000 HD
ATOM     22  H   UNL     1      -5.224  -3.977   1.424  0.00  0.00    +0.000 HD
ATOM     23  H   UNL     1      -6.856  -3.396  -0.336  0.00  0.00    +0.000 HD
BRANCH  19  24
ATOM     24  O   UNL     1      -6.526  -1.365  -2.085  0.00  0.00    +0.000 OA
ATOM     25  H   UNL     1      -7.307  -1.952  -2.074  0.00  0.00    +0.000 HD
ENDBRANCH  19  24
BRANCH  20  26
ATOM     26  O   UNL     1      -4.283   0.040  -1.812  0.00  0.00    +0.000 OA
ATOM     27  H   UNL     1      -5.079   0.031  -2.393  0.00  0.00    +0.000 HD
ENDBRANCH  20  26
ENDBRANCH  12  15
ENDBRANCH   4  11
BRANCH   1  29
ATOM     28  C   UNL     1       3.955   2.471  -0.494  0.00  0.00    +0.000 C 
ATOM     29  N   UNL     1       2.842   3.113  -0.728  0.00  0.00    +0.000 NA
ATOM     30  H   UNL     1       4.865   3.054  -0.713  0.00  0.00    +0.000 HD
BRANCH  28  35
ATOM     31  C   UNL     1       5.333  -0.317   1.646  0.00  0.00    +0.000 A 
ATOM     32  C   UNL     1       4.404  -1.331   1.427  0.00  0.00    +0.000 A 
ATOM     33  C   UNL     1       3.423  -1.160   0.454  0.00  0.00    +0.000 A 
ATOM     34  C   UNL     1       3.356   0.034  -0.269  0.00  0.00    +0.000 A 
ATOM     35  C   UNL     1       4.201   1.108   0.048  0.00  0.00    +0.000 A 
ATOM     36  C   UNL     1       5.238   0.905   0.969  0.00  0.00    +0.000 A 
ATOM     37  H   UNL     1       4.438  -2.254   1.999  0.00  0.00    +0.000 HD
ATOM     38  H   UNL     1       2.700  -1.952   0.270  0.00  0.00    +0.000 HD
ATOM     39  H   UNL     1       2.598   0.141  -1.038  0.00  0.00    +0.000 HD
BRANCH  31  40
ATOM     40  O   UNL     1       6.351  -0.508   2.539  0.00  0.00    +0.000 OA
ATOM     41  H   UNL     1       6.408  -1.448   2.773  0.00  0.00    +0.000 HD
ENDBRANCH  31  40
BRANCH  36  42
ATOM     42  O   UNL     1       6.150   1.873   1.292  0.00  0.00    +0.000 OA
ATOM     43  H   UNL     1       6.374   2.408   0.516  0.00  0.00    +0.000 HD
ENDBRANCH  36  42
ENDBRANCH  28  35
ENDBRANCH   1  29
TORSDOF 8
