REMARK  Name = 
REMARK  3 active torsions:
REMARK  status: ('A' for Active; 'I' for Inactive)
REMARK    1  A    between atoms: C_1  and  C_2
REMARK    2  A    between atoms: C_2  and  C_3
REMARK    3  A    between atoms: C_23  and  C_24
REMARK                            x       y       z     vdW  Elec       q    Type
REMARK                         _______ _______ _______ _____ _____    ______ ____
ROOT
ATOM      1  C   UNL     1      -2.327  -2.239  -1.280  0.00  0.00    +0.000 C 
ATOM      2  C   UNL     1      -1.764  -3.421  -0.475  0.00  0.00    +0.000 C 
ATOM      3  C   UNL     1      -0.252  -3.407  -0.513  0.00  0.00    +0.000 C 
ATOM      4  O   UNL     1       0.392  -4.436  -0.692  0.00  0.00    +0.000 OA
ATOM      5  C   UNL     1       0.416  -2.097  -0.306  0.00  0.00    +0.000 C 
ATOM      6  C   UNL     1      -0.303  -0.967  -0.378  0.00  0.00    +0.000 C 
ATOM      7  C   UNL     1      -1.779  -0.921  -0.685  0.00  0.00    +0.000 C 
ATOM      8  N   UNL     1       0.354   0.218  -0.162  0.00  0.00    +0.000 N 
ATOM      9  C   UNL     1       1.712   0.304  -0.033  0.00  0.00    +0.000 C 
ATOM     10  N   UNL     1       2.239   1.564  -0.012  0.00  0.00    +0.000 N 
ATOM     11  C   UNL     1       1.604   2.747  -0.026  0.00  0.00    +0.000 A 
ATOM     12  N   UNL     1       0.307   2.987  -0.071  0.00  0.00    +0.000 NA
ATOM     13  C   UNL     1       0.230   4.356  -0.053  0.00  0.00    +0.000 A 
ATOM     14  C   UNL     1      -0.875   5.215  -0.077  0.00  0.00    +0.000 A 
ATOM     15  C   UNL     1      -0.636   6.597  -0.054  0.00  0.00    +0.000 A 
ATOM     16  C   UNL     1       0.667   7.106  -0.007  0.00  0.00    +0.000 A 
ATOM     17  C   UNL     1       1.783   6.258   0.022  0.00  0.00    +0.000 A 
ATOM     18  C   UNL     1       1.504   4.897  -0.003  0.00  0.00    +0.000 A 
ATOM     19  O   UNL     1       2.395   3.861   0.015  0.00  0.00    +0.000 OA
ATOM     20  N   UNL     1       2.506  -0.716   0.050  0.00  0.00    +0.000 NA
ATOM     21  C   UNL     1       1.883  -2.076   0.054  0.00  0.00    +0.000 C 
ATOM     22  H   UNL     1      -2.119  -4.375  -0.881  0.00  0.00    +0.000 HD
ATOM     23  H   UNL     1      -2.073  -3.373   0.577  0.00  0.00    +0.000 HD
ATOM     24  H   UNL     1      -1.986  -0.095  -1.377  0.00  0.00    +0.000 HD
ATOM     25  H   UNL     1      -2.303  -0.685   0.250  0.00  0.00    +0.000 HD
ATOM     26  H   UNL     1      -0.178   1.086  -0.222  0.00  0.00    +0.000 HD
ATOM     27  H   UNL     1       3.248   1.574   0.043  0.00  0.00    +0.000 HD
ATOM     28  H   UNL     1      -1.884   4.819  -0.115  0.00  0.00    +0.000 HD
ATOM     29  H   UNL     1      -1.482   7.284  -0.073  0.00  0.00    +0.000 HD
ATOM     30  H   UNL     1       0.817   8.185   0.007  0.00  0.00    +0.000 HD
ATOM     31  H   UNL     1       2.797   6.636   0.060  0.00  0.00    +0.000 HD
ATOM     32  H   UNL     1       2.426  -2.651  -0.708  0.00  0.00    +0.000 HD
ENDROOT
BRANCH  21  33
ATOM     33  C   UNL     1       2.110  -2.675   1.430  0.00  0.00    +0.000 A 
ATOM     34  C   UNL     1       1.659  -2.195   2.648  0.00  0.00    +0.000 A 
ATOM     35  C   UNL     1       1.902  -3.102   3.714  0.00  0.00    +0.000 A 
ATOM     36  C   UNL     1       2.563  -4.231   3.287  0.00  0.00    +0.000 A 
ATOM     37  S   UNL     1       2.919  -4.175   1.615  0.00  0.00    +0.000 S 
ATOM     38  H   UNL     1       1.134  -1.252   2.747  0.00  0.00    +0.000 HD
ATOM     39  H   UNL     1       1.593  -2.942   4.739  0.00  0.00    +0.000 HD
ATOM     40  H   UNL     1       2.858  -5.089   3.873  0.00  0.00    +0.000 HD
ENDBRANCH  21  33
BRANCH   1  41
ATOM     41  C   UNL     1      -3.861  -2.240  -1.192  0.00  0.00    +0.000 C 
ATOM     42  H   UNL     1      -4.279  -3.170  -1.595  0.00  0.00    +0.000 HD
ATOM     43  H   UNL     1      -4.288  -1.407  -1.760  0.00  0.00    +0.000 HD
ATOM     44  H   UNL     1      -4.200  -2.146  -0.154  0.00  0.00    +0.000 HD
ENDBRANCH   1  41
BRANCH   1  45
ATOM     45  C   UNL     1      -1.930  -2.376  -2.767  0.00  0.00    +0.000 C 
ATOM     46  H   UNL     1      -2.293  -3.323  -3.181  0.00  0.00    +0.000 HD
ATOM     47  H   UNL     1      -0.846  -2.348  -2.917  0.00  0.00    +0.000 HD
ATOM     48  H   UNL     1      -2.360  -1.564  -3.364  0.00  0.00    +0.000 HD
ENDBRANCH   1  45
TORSDOF 3
