
 OpenBabel01112423173D

 39 42  0  0  0  0  0  0  0  0999 V2000
    1.0653    0.0485   -0.0295 O   0  0  0  0  0  0  0  0  0  0  0  0
    2.2892   -0.0369    0.0030 C   0  0  0  0  0  0  0  0  0  0  0  0
    2.9945   -0.2978    1.1552 N   0  0  0  0  0  0  0  0  0  0  0  0
    2.3272   -0.4231    2.4272 C   0  0  0  0  0  0  0  0  0  0  0  0
    3.0770   -1.3347    3.3664 C   0  0  0  0  0  0  0  0  0  0  0  0
    2.7888   -2.7207    3.3807 C   0  0  0  0  0  0  0  0  0  0  0  0
    3.4399   -3.5873    4.2658 C   0  0  0  0  0  0  0  0  0  0  0  0
    4.3777   -3.0472    5.1170 C   0  0  0  0  0  0  0  0  0  0  0  0
    4.6772   -1.7055    5.1030 C   0  0  0  0  0  0  0  0  0  0  0  0
    4.0535   -0.8262    4.2396 C   0  0  0  0  0  0  0  0  0  0  0  0
    5.6221   -1.3779    6.0258 O   0  0  0  0  0  0  0  0  0  0  0  0
    5.8567   -2.6619    6.6434 C   0  0  0  0  0  0  0  0  0  0  0  0
    5.0966   -3.7321    6.0457 O   0  0  0  0  0  0  0  0  0  0  0  0
    3.0973    0.1464   -1.1723 C   0  0  0  0  0  0  0  0  0  0  0  0
    4.4508    0.0085   -1.3972 C   0  0  0  0  0  0  0  0  0  0  0  0
    4.6603    0.3081   -2.7671 C   0  0  0  0  0  0  0  0  0  0  0  0
    5.9399    0.2859   -3.4743 C   0  0  0  0  0  0  0  0  0  0  0  0
    5.9945    0.0148   -4.8483 C   0  0  0  0  0  0  0  0  0  0  0  0
    7.2270   -0.0636   -5.5053 C   0  0  0  0  0  0  0  0  0  0  0  0
    8.4081    0.1388   -4.7931 C   0  0  0  0  0  0  0  0  0  0  0  0
   10.0737    0.0160   -5.6769 Br  0  0  0  0  0  0  0  0  0  0  0  0
    8.3716    0.4274   -3.4323 C   0  0  0  0  0  0  0  0  0  0  0  0
    7.1401    0.5022   -2.7759 C   0  0  0  0  0  0  0  0  0  0  0  0
    3.4960    0.5999   -3.3680 N   0  0  0  0  0  0  0  0  0  0  0  0
    2.5789    0.4969   -2.3877 N   0  0  0  0  0  0  0  0  0  0  0  0
    3.9922   -0.1527    1.1616 H   0  0  0  0  0  0  0  0  0  0  0  0
    1.3069   -0.7930    2.2814 H   0  0  0  0  0  0  0  0  0  0  0  0
    2.2458    0.5821    2.8548 H   0  0  0  0  0  0  0  0  0  0  0  0
    2.0360   -3.1252    2.7054 H   0  0  0  0  0  0  0  0  0  0  0  0
    3.2081   -4.6463    4.2901 H   0  0  0  0  0  0  0  0  0  0  0  0
    4.3045    0.2289    4.2624 H   0  0  0  0  0  0  0  0  0  0  0  0
    5.5908   -2.5950    7.7051 H   0  0  0  0  0  0  0  0  0  0  0  0
    6.9235   -2.9006    6.5641 H   0  0  0  0  0  0  0  0  0  0  0  0
    5.1979   -0.2974   -0.6808 H   0  0  0  0  0  0  0  0  0  0  0  0
    5.0778   -0.1545   -5.4075 H   0  0  0  0  0  0  0  0  0  0  0  0
    7.2509   -0.2883   -6.5681 H   0  0  0  0  0  0  0  0  0  0  0  0
    9.2874    0.5923   -2.8713 H   0  0  0  0  0  0  0  0  0  0  0  0
    7.1346    0.7363   -1.7151 H   0  0  0  0  0  0  0  0  0  0  0  0
    1.6000    0.6729   -2.6094 H   0  0  0  0  0  0  0  0  0  0  0  0
  1  2  2  0  0  0  0
  2  3  1  0  0  0  0
  2 14  1  0  0  0  0
  3  4  1  0  0  0  0
  3 26  1  0  0  0  0
  4  5  1  0  0  0  0
  4 27  1  0  0  0  0
  4 28  1  0  0  0  0
  5  6  1  0  0  0  0
  5 10  2  0  0  0  0
  6  7  2  0  0  0  0
  6 29  1  0  0  0  0
  7  8  1  0  0  0  0
  7 30  1  0  0  0  0
  8  9  2  0  0  0  0
  8 13  1  0  0  0  0
  9 10  1  0  0  0  0
  9 11  1  0  0  0  0
 10 31  1  0  0  0  0
 11 12  1  0  0  0  0
 12 13  1  0  0  0  0
 12 32  1  0  0  0  0
 12 33  1  0  0  0  0
 14 15  2  0  0  0  0
 14 25  1  0  0  0  0
 15 16  1  0  0  0  0
 15 34  1  0  0  0  0
 16 17  1  0  0  0  0
 16 24  2  0  0  0  0
 17 18  1  0  0  0  0
 17 23  2  0  0  0  0
 18 19  2  0  0  0  0
 18 35  1  0  0  0  0
 19 20  1  0  0  0  0
 19 36  1  0  0  0  0
 20 21  1  0  0  0  0
 20 22  2  0  0  0  0
 22 23  1  0  0  0  0
 22 37  1  0  0  0  0
 23 38  1  0  0  0  0
 24 25  1  0  0  0  0
 25 39  1  0  0  0  0
M  END
$$$$
