REMARK  Name = 
REMARK  5 active torsions:
REMARK  status: ('A' for Active; 'I' for Inactive)
REMARK    1  A    between atoms: C_1  and  C_2
REMARK    2  A    between atoms: C_7  and  O_8
REMARK    3  A    between atoms: O_8  and  C_9
REMARK    4  A    between atoms: C_9  and  C_10
REMARK    5  A    between atoms: C_17  and  N_18
REMARK                            x       y       z     vdW  Elec       q    Type
REMARK                         _______ _______ _______ _____ _____    ______ ____
ROOT
ATOM      1  C   UNL     1       0.387  -1.351  -1.509  0.00  0.00    +0.000 C 
ATOM      2  C   UNL     1       0.969  -2.656  -2.045  0.00  0.00    +0.000 C 
ATOM      3  C   UNL     1       0.782  -3.734  -0.949  0.00  0.00    +0.000 C 
ATOM      4  C   UNL     1       1.196  -3.305   0.484  0.00  0.00    +0.000 C 
ATOM      5  N   UNL     1       0.856  -1.895   0.759  0.00  0.00    +0.000 N 
ATOM      6  C   UNL     1      -0.033  -1.481   1.728  0.00  0.00    +0.000 A 
ATOM      7  C   UNL     1      -0.160  -2.115   2.961  0.00  0.00    +0.000 A 
ATOM      8  C   UNL     1      -0.987  -1.552   3.917  0.00  0.00    +0.000 A 
ATOM      9  N   UNL     1      -1.678  -0.428   3.701  0.00  0.00    +0.000 NA
ATOM     10  C   UNL     1      -1.533   0.134   2.496  0.00  0.00    +0.000 A 
ATOM     11  N   UNL     1      -2.226   1.306   2.243  0.00  0.00    +0.000 N 
ATOM     12  N   UNL     1      -0.763  -0.367   1.536  0.00  0.00    +0.000 N 
ATOM     13  C   UNL     1       1.247  -0.978  -0.299  0.00  0.00    +0.000 C 
ATOM     14  H   UNL     1      -0.637  -1.581  -1.174  0.00  0.00    +0.000 HD
ATOM     15  H   UNL     1       2.035  -2.546  -2.279  0.00  0.00    +0.000 HD
ATOM     16  H   UNL     1       0.466  -2.970  -2.966  0.00  0.00    +0.000 HD
ATOM     17  H   UNL     1       1.326  -4.644  -1.227  0.00  0.00    +0.000 HD
ATOM     18  H   UNL     1      -0.282  -4.005  -0.927  0.00  0.00    +0.000 HD
ATOM     19  H   UNL     1       2.281  -3.418   0.591  0.00  0.00    +0.000 HD
ATOM     20  H   UNL     1       0.731  -3.993   1.199  0.00  0.00    +0.000 HD
ATOM     21  H   UNL     1       0.432  -2.989   3.208  0.00  0.00    +0.000 HD
ATOM     22  H   UNL     1      -2.658   1.625   3.110  0.00  0.00    +0.000 HD
ATOM     23  H   UNL     1      -1.706   2.045   1.783  0.00  0.00    +0.000 HD
ATOM     24  H   UNL     1      -0.778   0.111   0.646  0.00  0.00    +0.000 HD
ATOM     25  H   UNL     1       2.316  -1.098  -0.520  0.00  0.00    +0.000 HD
ATOM     26  H   UNL     1       1.154   0.067   0.013  0.00  0.00    +0.000 HD
ENDROOT
BRANCH   1  27
ATOM     27  C   UNL     1       0.250  -0.140  -2.417  0.00  0.00    +0.000 C 
ATOM     28  H   UNL     1       1.232   0.226  -2.694  0.00  0.00    +0.000 HD
ATOM     29  H   UNL     1      -0.322  -0.381  -3.318  0.00  0.00    +0.000 HD
BRANCH  27  30
ATOM     30  O   UNL     1      -0.539   0.747  -1.610  0.00  0.00    +0.000 OA
BRANCH  30  36
ATOM     31  C   UNL     1       0.601   2.950  -1.934  0.00  0.00    +0.000 A 
ATOM     32  C   UNL     1       0.432   4.338  -1.729  0.00  0.00    +0.000 A 
ATOM     33  C   UNL     1      -0.725   4.867  -1.157  0.00  0.00    +0.000 A 
ATOM     34  C   UNL     1      -1.750   4.017  -0.778  0.00  0.00    +0.000 A 
ATOM     35  C   UNL     1      -1.610   2.649  -0.993  0.00  0.00    +0.000 A 
ATOM     36  C   UNL     1      -0.450   2.099  -1.575  0.00  0.00    +0.000 A 
ATOM     37  H   UNL     1       1.221   5.034  -2.016  0.00  0.00    +0.000 HD
ATOM     38  H   UNL     1      -0.823   5.941  -1.020  0.00  0.00    +0.000 HD
ATOM     39  H   UNL     1      -2.659   4.418  -0.338  0.00  0.00    +0.000 HD
ATOM     40  H   UNL     1      -2.439   1.998  -0.719  0.00  0.00    +0.000 HD
BRANCH  31  41
ATOM     41  C   UNL     1       1.926   2.521  -2.491  0.00  0.00    +0.000 C 
ATOM     42  H   UNL     1       2.590   3.375  -2.664  0.00  0.00    +0.000 HD
ATOM     43  H   UNL     1       1.801   2.034  -3.462  0.00  0.00    +0.000 HD
ATOM     44  H   UNL     1       2.440   1.864  -1.782  0.00  0.00    +0.000 HD
ENDBRANCH  31  41
ENDBRANCH  30  36
ENDBRANCH  27  30
ENDBRANCH   1  27
BRANCH   8  45
ATOM     45  N   UNL     1      -1.034  -2.080   5.197  0.00  0.00    +0.000 N 
ATOM     46  H   UNL     1      -1.177  -3.083   5.246  0.00  0.00    +0.000 HD
ATOM     47  H   UNL     1      -1.703  -1.573   5.772  0.00  0.00    +0.000 HD
ENDBRANCH   8  45
TORSDOF 5
