
 OpenBabel01112423033D

 46 48  0  0  0  0  0  0  0  0999 V2000
    0.6222    2.4091    1.3816 C   0  0  0  0  0  0  0  0  0  0  0  0
    2.1219    2.4892    1.1680 C   0  0  0  0  0  0  0  0  0  0  0  0
    2.7943    1.7593    2.1988 O   0  0  0  0  0  0  0  0  0  0  0  0
    4.1606    1.7214    2.1161 C   0  0  0  0  0  0  0  0  0  0  0  0
    4.9278    2.3915    1.1687 C   0  0  0  0  0  0  0  0  0  0  0  0
    6.3213    2.2660    1.1633 C   0  0  0  0  0  0  0  0  0  0  0  0
    6.9920    1.4436    2.0743 C   0  0  0  0  0  0  0  0  0  0  0  0
    8.3790    1.1605    2.0067 N   0  0  0  0  0  0  0  0  0  0  0  0
    9.3177    1.5616    1.0959 C   0  0  0  0  0  0  0  0  0  0  0  0
    8.8702    1.6833   -0.1894 N   0  0  0  0  0  0  0  0  0  0  0  0
   10.5473    1.7625    1.4702 N   0  0  0  0  0  0  0  0  0  0  0  0
   11.4906    2.2664    0.6517 C   0  0  0  0  0  0  0  0  0  0  0  0
   12.7431    1.8823    0.7952 N   0  0  0  0  0  0  0  0  0  0  0  0
   13.7555    2.3773    0.0052 C   0  0  0  0  0  0  0  0  0  0  0  0
   13.5101    3.2530   -0.9805 C   0  0  0  0  0  0  0  0  0  0  0  0
   12.1283    3.7045   -1.1565 C   0  0  0  0  0  0  0  0  0  0  0  0
   11.7226    4.4782   -2.0010 O   0  0  0  0  0  0  0  0  0  0  0  0
   11.2088    3.1570   -0.2588 N   0  3  0  0  0  0  0  0  0  0  0  0
   14.5481    3.7980   -1.9141 C   0  0  0  0  0  0  0  0  0  0  0  0
   15.8718    3.0346   -1.8270 C   0  0  0  0  0  0  0  0  0  0  0  0
   16.2380    2.7481   -0.3735 C   0  0  0  0  0  0  0  0  0  0  0  0
   15.1568    1.9045    0.3119 C   0  0  0  0  0  0  0  0  0  0  0  0
    6.2102    0.7956    3.0446 C   0  0  0  0  0  0  0  0  0  0  0  0
    4.8134    0.9442    3.0719 C   0  0  0  0  0  0  0  0  0  0  0  0
    0.0950    2.9360    0.5795 H   0  0  0  0  0  0  0  0  0  0  0  0
    0.3441    2.8611    2.3385 H   0  0  0  0  0  0  0  0  0  0  0  0
    0.2845    1.3686    1.4015 H   0  0  0  0  0  0  0  0  0  0  0  0
    2.4215    3.5431    1.2000 H   0  0  0  0  0  0  0  0  0  0  0  0
    2.3591    2.0601    0.1868 H   0  0  0  0  0  0  0  0  0  0  0  0
    4.4775    3.0236    0.4110 H   0  0  0  0  0  0  0  0  0  0  0  0
    6.8569    2.8529    0.4248 H   0  0  0  0  0  0  0  0  0  0  0  0
    8.7566    0.9157    2.9179 H   0  0  0  0  0  0  0  0  0  0  0  0
    8.0189    1.1410   -0.3463 H   0  0  0  0  0  0  0  0  0  0  0  0
    9.5214    1.4632   -0.9339 H   0  0  0  0  0  0  0  0  0  0  0  0
   12.9124    1.2142    1.5377 H   0  0  0  0  0  0  0  0  0  0  0  0
   10.2428    3.4510   -0.3058 H   0  0  0  0  0  0  0  0  0  0  0  0
   14.7204    4.8530   -1.6688 H   0  0  0  0  0  0  0  0  0  0  0  0
   14.1904    3.7603   -2.9499 H   0  0  0  0  0  0  0  0  0  0  0  0
   16.6647    3.6151   -2.3119 H   0  0  0  0  0  0  0  0  0  0  0  0
   15.7896    2.0875   -2.3758 H   0  0  0  0  0  0  0  0  0  0  0  0
   16.3581    3.6989    0.1622 H   0  0  0  0  0  0  0  0  0  0  0  0
   17.2018    2.2301   -0.3219 H   0  0  0  0  0  0  0  0  0  0  0  0
   15.3274    1.9312    1.3952 H   0  0  0  0  0  0  0  0  0  0  0  0
   15.2519    0.8593   -0.0056 H   0  0  0  0  0  0  0  0  0  0  0  0
    6.6713    0.1578    3.7960 H   0  0  0  0  0  0  0  0  0  0  0  0
    4.2315    0.4344    3.8377 H   0  0  0  0  0  0  0  0  0  0  0  0
  1  2  1  0  0  0  0
  1 25  1  0  0  0  0
  1 26  1  0  0  0  0
  1 27  1  0  0  0  0
  2  3  1  0  0  0  0
  2 28  1  0  0  0  0
  2 29  1  0  0  0  0
  3  4  1  0  0  0  0
  4  5  1  0  0  0  0
  4 24  2  0  0  0  0
  5  6  2  0  0  0  0
  5 30  1  0  0  0  0
  6  7  1  0  0  0  0
  6 31  1  0  0  0  0
  7  8  1  0  0  0  0
  7 23  2  0  0  0  0
  8  9  1  0  0  0  0
  8 32  1  0  0  0  0
  9 10  1  0  0  0  0
  9 11  2  3  0  0  0
 10 33  1  0  0  0  0
 10 34  1  0  0  0  0
 11 12  1  0  0  0  0
 12 13  1  0  0  0  0
 12 18  2  0  0  0  0
 13 14  1  0  0  0  0
 13 35  1  0  0  0  0
 14 15  2  0  0  0  0
 14 22  1  0  0  0  0
 15 16  1  0  0  0  0
 15 19  1  0  0  0  0
 16 17  2  0  0  0  0
 16 18  1  0  0  0  0
 18 36  1  0  0  0  0
 19 20  1  0  0  0  0
 19 37  1  0  0  0  0
 19 38  1  0  0  0  0
 20 21  1  0  0  0  0
 20 39  1  0  0  0  0
 20 40  1  0  0  0  0
 21 22  1  0  0  0  0
 21 41  1  0  0  0  0
 21 42  1  0  0  0  0
 22 43  1  0  0  0  0
 22 44  1  0  0  0  0
 23 24  1  0  0  0  0
 23 45  1  0  0  0  0
 24 46  1  0  0  0  0
M  CHG  1  18   1
M  END
$$$$
