
 OpenBabel01112423103D

 51 54  0  0  1  0  0  0  0  0999 V2000
   -4.2456   -1.0941    0.5880 C   0  0  0  0  0  0  0  0  0  0  0  0
   -2.9726   -0.4748   -0.0133 C   0  0  0  0  0  0  0  0  0  0  0  0
   -3.1583   -0.4016   -1.5448 C   0  0  0  0  0  0  0  0  0  0  0  0
   -2.7371    0.9294    0.5622 C   0  0  0  0  0  0  0  0  0  0  0  0
   -1.4488    1.5201    0.0152 C   0  0  0  0  0  0  0  0  0  0  0  0
   -1.4154    2.6760   -0.4003 O   0  0  0  0  0  0  0  0  0  0  0  0
   -0.2431    0.6427   -0.0253 C   0  0  0  0  0  0  0  0  0  0  0  0
   -0.4324   -0.6799    0.1493 C   0  0  0  0  0  0  0  0  0  0  0  0
   -1.7629   -1.3534    0.3570 C   0  0  0  0  0  0  0  0  0  0  0  0
    0.6089   -1.5864    0.0772 O   0  0  0  0  0  0  0  0  0  0  0  0
    1.9216   -1.1505    0.0134 C   0  0  0  0  0  0  0  0  0  0  0  0
    2.8210   -2.1833    0.1126 N   0  0  0  0  0  0  0  0  0  0  0  0
    2.2200    0.1568   -0.1572 C   0  0  0  0  0  0  0  0  0  0  0  0
    3.5850    0.5655   -0.1961 C   0  0  0  0  0  0  0  0  0  0  0  0
    4.7066    0.8627   -0.2167 N   0  0  0  0  0  0  0  0  0  0  0  0
    1.1195    1.1939   -0.3991 C   0  0  2  0  0  0  0  0  0  0  0  0
    1.4761    2.6058    0.0146 C   0  0  0  0  0  0  0  0  0  0  0  0
    2.1571    3.5939   -0.6788 C   0  0  0  0  0  0  0  0  0  0  0  0
    2.1481    4.7406    0.1370 C   0  0  0  0  0  0  0  0  0  0  0  0
    1.4569    4.4011    1.2819 C   0  0  0  0  0  0  0  0  0  0  0  0
    1.0515    5.2038    2.4651 C   0  0  0  0  0  0  0  0  0  0  0  0
    2.1699    5.2300    3.3486 O   0  0  0  0  0  0  0  0  0  0  0  0
    2.0221    5.8861    4.5394 C   0  0  0  0  0  0  0  0  0  0  0  0
    0.9131    6.6472    4.9242 C   0  0  0  0  0  0  0  0  0  0  0  0
    0.8888    7.2557    6.1843 C   0  0  0  0  0  0  0  0  0  0  0  0
    1.9669    7.1077    7.0514 C   0  0  0  0  0  0  0  0  0  0  0  0
    1.9283    7.6871    8.2576 F   0  0  0  0  0  0  0  0  0  0  0  0
    3.0812    6.3681    6.6824 C   0  0  0  0  0  0  0  0  0  0  0  0
    3.0991    5.7679    5.4290 C   0  0  0  0  0  0  0  0  0  0  0  0
    4.1817    5.0566    5.0800 F   0  0  0  0  0  0  0  0  0  0  0  0
    1.0731    3.0848    1.2298 O   0  0  0  0  0  0  0  0  0  0  0  0
   -5.1287   -0.4874    0.3594 H   0  0  0  0  0  0  0  0  0  0  0  0
   -4.1725   -1.1808    1.6776 H   0  0  0  0  0  0  0  0  0  0  0  0
   -4.4189   -2.0997    0.1867 H   0  0  0  0  0  0  0  0  0  0  0  0
   -4.0123    0.2355   -1.8030 H   0  0  0  0  0  0  0  0  0  0  0  0
   -3.3452   -1.3949   -1.9674 H   0  0  0  0  0  0  0  0  0  0  0  0
   -2.2800    0.0066   -2.0556 H   0  0  0  0  0  0  0  0  0  0  0  0
   -2.6639    0.9078    1.6571 H   0  0  0  0  0  0  0  0  0  0  0  0
   -3.5680    1.5956    0.3019 H   0  0  0  0  0  0  0  0  0  0  0  0
   -1.8184   -1.6549    1.4110 H   0  0  0  0  0  0  0  0  0  0  0  0
   -1.7964   -2.2802   -0.2323 H   0  0  0  0  0  0  0  0  0  0  0  0
    2.4219   -3.0124    0.5455 H   0  0  0  0  0  0  0  0  0  0  0  0
    3.7480   -1.9457    0.4557 H   0  0  0  0  0  0  0  0  0  0  0  0
    1.0665    1.2662   -1.5000 H   0  0  0  0  0  0  0  0  0  0  0  0
    2.5886    3.4978   -1.6630 H   0  0  0  0  0  0  0  0  0  0  0  0
    2.5691    5.7130   -0.0867 H   0  0  0  0  0  0  0  0  0  0  0  0
    0.1762    4.7546    2.9487 H   0  0  0  0  0  0  0  0  0  0  0  0
    0.8121    6.2227    2.1351 H   0  0  0  0  0  0  0  0  0  0  0  0
    0.0570    6.7897    4.2729 H   0  0  0  0  0  0  0  0  0  0  0  0
    0.0319    7.8465    6.4982 H   0  0  0  0  0  0  0  0  0  0  0  0
    3.9202    6.2573    7.3573 H   0  0  0  0  0  0  0  0  0  0  0  0
  1  2  1  0  0  0  0
  1 32  1  0  0  0  0
  1 33  1  0  0  0  0
  1 34  1  0  0  0  0
  2  3  1  0  0  0  0
  2  4  1  0  0  0  0
  2  9  1  0  0  0  0
  3 35  1  0  0  0  0
  3 36  1  0  0  0  0
  3 37  1  0  0  0  0
  4  5  1  0  0  0  0
  4 38  1  0  0  0  0
  4 39  1  0  0  0  0
  5  6  2  0  0  0  0
  5  7  1  0  0  0  0
  7  8  2  0  0  0  0
  7 16  1  0  0  0  0
  8  9  1  0  0  0  0
  8 10  1  0  0  0  0
  9 40  1  0  0  0  0
  9 41  1  0  0  0  0
 10 11  1  0  0  0  0
 11 12  1  0  0  0  0
 11 13  2  0  0  0  0
 12 42  1  0  0  0  0
 12 43  1  0  0  0  0
 13 14  1  0  0  0  0
 13 16  1  0  0  0  0
 14 15  3  0  0  0  0
 16 17  1  0  0  0  0
 16 44  1  6  0  0  0
 17 18  2  0  0  0  0
 17 31  1  0  0  0  0
 18 19  1  0  0  0  0
 18 45  1  0  0  0  0
 19 20  2  0  0  0  0
 19 46  1  0  0  0  0
 20 21  1  0  0  0  0
 20 31  1  0  0  0  0
 21 22  1  0  0  0  0
 21 47  1  0  0  0  0
 21 48  1  0  0  0  0
 22 23  1  0  0  0  0
 23 24  1  0  0  0  0
 23 29  2  0  0  0  0
 24 25  2  0  0  0  0
 24 49  1  0  0  0  0
 25 26  1  0  0  0  0
 25 50  1  0  0  0  0
 26 27  1  0  0  0  0
 26 28  2  0  0  0  0
 28 29  1  0  0  0  0
 28 51  1  0  0  0  0
 29 30  1  0  0  0  0
M  END
$$$$
