REMARK  Name = 
REMARK  8 active torsions:
REMARK  status: ('A' for Active; 'I' for Inactive)
REMARK    1  A    between atoms: C_1  and  O_2
REMARK    2  A    between atoms: O_2  and  C_3
REMARK    3  A    between atoms: C_3  and  C_4
REMARK    4  A    between atoms: C_4  and  C_5
REMARK    5  A    between atoms: C_5  and  N_6
REMARK    6  A    between atoms: N_6  and  C_7
REMARK    7  A    between atoms: N_12  and  C_13
REMARK    8  A    between atoms: C_23  and  N_24
REMARK                            x       y       z     vdW  Elec       q    Type
REMARK                         _______ _______ _______ _____ _____    ______ ____
ROOT
ATOM      1  C   UNL     1      -1.194   1.829  -0.654  0.00  0.00    +0.000 A 
ATOM      2  N   UNL     1      -1.412   1.114  -1.771  0.00  0.00    +0.000 NA
ATOM      3  C   UNL     1      -0.565   0.107  -2.001  0.00  0.00    +0.000 A 
ATOM      4  N   UNL     1       0.465  -0.214  -1.220  0.00  0.00    +0.000 N 
ATOM      5  C   UNL     1       0.711   0.441  -0.081  0.00  0.00    +0.000 A 
ATOM      6  N   UNL     1       1.730   0.031   0.785  0.00  0.00    +0.000 N 
ATOM      7  C   UNL     1      -0.171   1.495   0.273  0.00  0.00    +0.000 A 
ATOM      8  H   UNL     1      -0.718  -0.493  -2.888  0.00  0.00    +0.000 HD
ATOM      9  H   UNL     1       1.051  -0.973  -1.510  0.00  0.00    +0.000 HD
ATOM     10  H   UNL     1       2.317   0.808   1.097  0.00  0.00    +0.000 HD
ENDROOT
BRANCH   6  11
ATOM     11  C   UNL     1       2.384  -1.289   0.754  0.00  0.00    +0.000 C 
ATOM     12  C   UNL     1       3.377  -1.403  -0.428  0.00  0.00    +0.000 C 
ATOM     13  C   UNL     1       3.957  -2.823  -0.502  0.00  0.00    +0.000 C 
ATOM     14  C   UNL     1       4.770  -3.093   0.774  0.00  0.00    +0.000 C 
ATOM     15  C   UNL     1       3.865  -2.948   2.009  0.00  0.00    +0.000 C 
ATOM     16  C   UNL     1       2.765  -4.019   1.912  0.00  0.00    +0.000 C 
ATOM     17  C   UNL     1       1.924  -3.785   0.653  0.00  0.00    +0.000 C 
ATOM     18  C   UNL     1       2.807  -3.839  -0.606  0.00  0.00    +0.000 C 
ATOM     19  C   UNL     1       1.295  -2.399   0.754  0.00  0.00    +0.000 C 
ATOM     20  C   UNL     1       3.232  -1.529   2.038  0.00  0.00    +0.000 C 
ATOM     21  H   UNL     1       4.193  -0.677  -0.299  0.00  0.00    +0.000 HD
ATOM     22  H   UNL     1       2.928  -1.152  -1.392  0.00  0.00    +0.000 HD
ATOM     23  H   UNL     1       4.608  -2.910  -1.380  0.00  0.00    +0.000 HD
ATOM     24  H   UNL     1       5.615  -2.399   0.840  0.00  0.00    +0.000 HD
ATOM     25  H   UNL     1       5.193  -4.106   0.734  0.00  0.00    +0.000 HD
ATOM     26  H   UNL     1       4.454  -3.111   2.918  0.00  0.00    +0.000 HD
ATOM     27  H   UNL     1       2.127  -3.984   2.804  0.00  0.00    +0.000 HD
ATOM     28  H   UNL     1       3.209  -5.022   1.878  0.00  0.00    +0.000 HD
ATOM     29  H   UNL     1       1.134  -4.540   0.586  0.00  0.00    +0.000 HD
ATOM     30  H   UNL     1       2.201  -3.625  -1.497  0.00  0.00    +0.000 HD
ATOM     31  H   UNL     1       3.210  -4.850  -0.731  0.00  0.00    +0.000 HD
ATOM     32  H   UNL     1       0.697  -2.322   1.674  0.00  0.00    +0.000 HD
ATOM     33  H   UNL     1       0.577  -2.298  -0.062  0.00  0.00    +0.000 HD
ATOM     34  H   UNL     1       4.026  -0.775   2.120  0.00  0.00    +0.000 HD
ATOM     35  H   UNL     1       2.611  -1.418   2.936  0.00  0.00    +0.000 HD
ENDBRANCH   6  11
BRANCH   7  36
ATOM     36  N   UNL     1       0.076   2.269   1.436  0.00  0.00    +0.000 N 
ATOM     37  H   UNL     1       0.575   1.753   2.160  0.00  0.00    +0.000 HD
ATOM     38  H   UNL     1      -0.753   2.704   1.829  0.00  0.00    +0.000 HD
ENDBRANCH   7  36
BRANCH   1  39
ATOM     39  N   UNL     1      -1.940   3.003  -0.477  0.00  0.00    +0.000 N 
ATOM     40  H   UNL     1      -1.951   3.322   0.482  0.00  0.00    +0.000 HD
BRANCH  39  41
ATOM     41  C   UNL     1      -3.286   2.995  -1.059  0.00  0.00    +0.000 C 
ATOM     42  H   UNL     1      -3.250   2.825  -2.143  0.00  0.00    +0.000 HD
ATOM     43  H   UNL     1      -3.873   2.188  -0.604  0.00  0.00    +0.000 HD
BRANCH  41  44
ATOM     44  C   UNL     1      -3.945   4.347  -0.784  0.00  0.00    +0.000 C 
ATOM     45  H   UNL     1      -3.963   4.519   0.300  0.00  0.00    +0.000 HD
ATOM     46  H   UNL     1      -3.346   5.150  -1.230  0.00  0.00    +0.000 HD
BRANCH  44  47
ATOM     47  C   UNL     1      -5.367   4.410  -1.324  0.00  0.00    +0.000 C 
ATOM     48  H   UNL     1      -5.793   5.397  -1.111  0.00  0.00    +0.000 HD
ATOM     49  H   UNL     1      -5.372   4.247  -2.407  0.00  0.00    +0.000 HD
BRANCH  47  50
ATOM     50  O   UNL     1      -6.149   3.407  -0.680  0.00  0.00    +0.000 OA
BRANCH  50  51
ATOM     51  C   UNL     1      -7.495   3.417  -1.142  0.00  0.00    +0.000 C 
ATOM     52  H   UNL     1      -8.049   2.644  -0.603  0.00  0.00    +0.000 HD
ATOM     53  H   UNL     1      -7.530   3.190  -2.212  0.00  0.00    +0.000 HD
ATOM     54  H   UNL     1      -7.962   4.386  -0.945  0.00  0.00    +0.000 HD
ENDBRANCH  50  51
ENDBRANCH  47  50
ENDBRANCH  44  47
ENDBRANCH  41  44
ENDBRANCH  39  41
ENDBRANCH   1  39
TORSDOF 8
