MODEL 1
REMARK VINA RESULT:    -8.607      0.000      0.000
REMARK INTER + INTRA:         -10.904
REMARK INTER:                 -10.872
REMARK INTRA:                  -0.032
REMARK UNBOUND:                -0.032
REMARK  Name = 
REMARK  6 active torsions:
REMARK  status: ('A' for Active; 'I' for Inactive)
REMARK    1  A    between atoms: C_1  and  C_2
REMARK    2  A    between atoms: C_2  and  C_3
REMARK    3  A    between atoms: C_2  and  C_4
REMARK    4  A    between atoms: N_8  and  S_9
REMARK    5  A    between atoms: S_9  and  C_12
REMARK    6  A    between atoms: N_16  and  N_17
REMARK                            x       y       z     vdW  Elec       q    Type
REMARK                         _______ _______ _______ _____ _____    ______ ____
ROOT
ATOM      1  C   UNL     1      -9.217 -11.216  17.151  0.00  0.00    +0.000 A 
ATOM      2  C   UNL     1      -9.949 -10.606  16.203  0.00  0.00    +0.000 A 
ATOM      3  S   UNL     1      -9.991  -8.875  16.436  0.00  0.00    +0.000 S 
ATOM      4  C   UNL     1      -8.948  -8.992  17.884  0.00  0.00    +0.000 A 
ATOM      5  N   UNL     1      -8.521  -8.027  18.628  0.00  0.00    +0.000 NA
ATOM      6  N   UNL     1      -8.669 -10.328  18.064  0.00  0.00    +0.000 N 
ATOM      7  H   UNL     1     -10.473 -11.094  15.390  0.00  0.00    +0.000 HD
ATOM      8  H   UNL     1      -8.109 -10.663  18.835  0.00  0.00    +0.000 HD
ENDROOT
BRANCH   5   9
ATOM      9  S   UNL     1      -8.955  -6.510  18.297  0.00  0.00    +0.000 S 
ATOM     10  O   UNL     1      -8.554  -6.154  16.950  0.00  0.00    +0.000 OA
ATOM     11  O   UNL     1     -10.282  -6.234  18.798  0.00  0.00    +0.000 OA
BRANCH   9  12
ATOM     12  C   UNL     1      -7.891  -5.525  19.325  0.00  0.00    +0.000 A 
ATOM     13  C   UNL     1      -6.529  -5.799  19.417  0.00  0.00    +0.000 A 
ATOM     14  C   UNL     1      -5.742  -5.017  20.265  0.00  0.00    +0.000 A 
ATOM     15  C   UNL     1      -6.333  -3.980  20.988  0.00  0.00    +0.000 A 
ATOM     16  N   UNL     1      -5.567  -3.085  21.750  0.00  0.00    +0.000 N 
ATOM     17  N   UNL     1      -7.652  -3.778  20.881  0.00  0.00    +0.000 N 
ATOM     18  C   UNL     1      -8.451  -4.509  20.089  0.00  0.00    +0.000 A 
ATOM     19  H   UNL     1      -6.081  -6.610  18.842  0.00  0.00    +0.000 HD
ATOM     20  H   UNL     1      -4.674  -5.199  20.336  0.00  0.00    +0.000 HD
ATOM     21  H   UNL     1      -4.977  -3.591  22.426  0.00  0.00    +0.000 HD
ATOM     22  H   UNL     1      -8.014  -3.022  21.465  0.00  0.00    +0.000 HD
ATOM     23  H   UNL     1      -9.503  -4.251  20.092  0.00  0.00    +0.000 HD
BRANCH  16  24
ATOM     24  N   UNL     1      -6.203  -1.916  22.232  0.00  0.00    +0.000 NA
ATOM     25  H   UNL     1      -7.034  -1.693  21.664  0.00  0.00    +0.000 HD
ATOM     26  H   UNL     1      -5.601  -1.104  22.005  0.00  0.00    +0.000 HD
ENDBRANCH  16  24
ENDBRANCH   9  12
ENDBRANCH   5   9
BRANCH   1  27
ATOM     27  C   UNL     1      -9.013 -12.709  17.238  0.00  0.00    +0.000 C 
ATOM     28  H   UNL     1      -9.994 -13.185  17.384  0.00  0.00    +0.000 HD
BRANCH  27  29
ATOM     29  C   UNL     1      -8.425 -13.291  15.953  0.00  0.00    +0.000 C 
ATOM     30  H   UNL     1      -9.224 -13.650  15.296  0.00  0.00    +0.000 HD
ATOM     31  H   UNL     1      -7.757 -14.135  16.156  0.00  0.00    +0.000 HD
ATOM     32  H   UNL     1      -7.858 -12.533  15.401  0.00  0.00    +0.000 HD
ENDBRANCH  27  29
BRANCH  27  33
ATOM     33  C   UNL     1      -8.153 -13.079  18.447  0.00  0.00    +0.000 C 
ATOM     34  H   UNL     1      -8.472 -14.026  18.897  0.00  0.00    +0.000 HD
ATOM     35  H   UNL     1      -8.217 -12.303  19.217  0.00  0.00    +0.000 HD
ATOM     36  H   UNL     1      -7.100 -13.177  18.162  0.00  0.00    +0.000 HD
ENDBRANCH  27  33
ENDBRANCH   1  27
TORSDOF 6
ENDMDL
MODEL 2
REMARK VINA RESULT:    -8.500      2.235      8.027
REMARK INTER + INTRA:         -10.769
REMARK INTER:                 -10.668
REMARK INTRA:                  -0.101
REMARK UNBOUND:                -0.032
REMARK  Name = 
REMARK  6 active torsions:
REMARK  status: ('A' for Active; 'I' for Inactive)
REMARK    1  A    between atoms: C_1  and  C_2
REMARK    2  A    between atoms: C_2  and  C_3
REMARK    3  A    between atoms: C_2  and  C_4
REMARK    4  A    between atoms: N_8  and  S_9
REMARK    5  A    between atoms: S_9  and  C_12
REMARK    6  A    between atoms: N_16  and  N_17
REMARK                            x       y       z     vdW  Elec       q    Type
REMARK                         _______ _______ _______ _____ _____    ______ ____
ROOT
ATOM      1  C   UNL     1      -8.184  -5.143  19.866  0.00  0.00    +0.000 A 
ATOM      2  C   UNL     1      -8.966  -4.505  18.979  0.00  0.00    +0.000 A 
ATOM      3  S   UNL     1      -9.559  -5.588  17.744  0.00  0.00    +0.000 S 
ATOM      4  C   UNL     1      -8.712  -6.979  18.484  0.00  0.00    +0.000 A 
ATOM      5  N   UNL     1      -8.709  -8.206  18.082  0.00  0.00    +0.000 NA
ATOM      6  N   UNL     1      -8.052  -6.497  19.592  0.00  0.00    +0.000 N 
ATOM      7  H   UNL     1      -9.209  -3.449  18.988  0.00  0.00    +0.000 HD
ATOM      8  H   UNL     1      -7.478  -7.086  20.177  0.00  0.00    +0.000 HD
ENDROOT
BRANCH   5   9
ATOM      9  S   UNL     1      -9.518  -8.611  16.747  0.00  0.00    +0.000 S 
ATOM     10  O   UNL     1     -10.946  -8.530  16.979  0.00  0.00    +0.000 OA
ATOM     11  O   UNL     1      -8.898  -8.033  15.576  0.00  0.00    +0.000 OA
BRANCH   9  12
ATOM     12  C   UNL     1      -9.220 -10.355  16.578  0.00  0.00    +0.000 A 
ATOM     13  C   UNL     1      -8.832 -11.125  17.671  0.00  0.00    +0.000 A 
ATOM     14  C   UNL     1      -8.577 -12.485  17.478  0.00  0.00    +0.000 A 
ATOM     15  C   UNL     1      -8.725 -13.038  16.205  0.00  0.00    +0.000 A 
ATOM     16  N   UNL     1      -8.610 -14.419  15.986  0.00  0.00    +0.000 N 
ATOM     17  N   UNL     1      -9.076 -12.245  15.185  0.00  0.00    +0.000 N 
ATOM     18  C   UNL     1      -9.320 -10.933  15.318  0.00  0.00    +0.000 A 
ATOM     19  H   UNL     1      -8.725 -10.680  18.660  0.00  0.00    +0.000 HD
ATOM     20  H   UNL     1      -8.294 -13.109  18.320  0.00  0.00    +0.000 HD
ATOM     21  H   UNL     1      -7.708 -14.772  16.336  0.00  0.00    +0.000 HD
ATOM     22  H   UNL     1      -9.133 -12.717  14.281  0.00  0.00    +0.000 HD
ATOM     23  H   UNL     1      -9.591 -10.397  14.416  0.00  0.00    +0.000 HD
BRANCH  16  24
ATOM     24  N   UNL     1      -9.032 -14.926  14.733  0.00  0.00    +0.000 NA
ATOM     25  H   UNL     1     -10.061 -14.900  14.658  0.00  0.00    +0.000 HD
ATOM     26  H   UNL     1      -8.874 -15.950  14.730  0.00  0.00    +0.000 HD
ENDBRANCH  16  24
ENDBRANCH   9  12
ENDBRANCH   5   9
BRANCH   1  27
ATOM     27  C   UNL     1      -7.500  -4.475  21.033  0.00  0.00    +0.000 C 
ATOM     28  H   UNL     1      -7.679  -5.080  21.933  0.00  0.00    +0.000 HD
BRANCH  27  29
ATOM     29  C   UNL     1      -5.984  -4.393  20.849  0.00  0.00    +0.000 C 
ATOM     30  H   UNL     1      -5.557  -3.650  21.531  0.00  0.00    +0.000 HD
ATOM     31  H   UNL     1      -5.712  -4.103  19.828  0.00  0.00    +0.000 HD
ATOM     32  H   UNL     1      -5.508  -5.355  21.068  0.00  0.00    +0.000 HD
ENDBRANCH  27  29
BRANCH  27  33
ATOM     33  C   UNL     1      -8.092  -3.090  21.301  0.00  0.00    +0.000 C 
ATOM     34  H   UNL     1      -8.033  -2.446  20.416  0.00  0.00    +0.000 HD
ATOM     35  H   UNL     1      -7.554  -2.593  22.115  0.00  0.00    +0.000 HD
ATOM     36  H   UNL     1      -9.144  -3.166  21.595  0.00  0.00    +0.000 HD
ENDBRANCH  27  33
ENDBRANCH   1  27
TORSDOF 6
ENDMDL
MODEL 3
REMARK VINA RESULT:    -8.288      1.743      7.663
REMARK INTER + INTRA:         -10.500
REMARK INTER:                 -10.416
REMARK INTRA:                  -0.085
REMARK UNBOUND:                -0.032
REMARK  Name = 
REMARK  6 active torsions:
REMARK  status: ('A' for Active; 'I' for Inactive)
REMARK    1  A    between atoms: C_1  and  C_2
REMARK    2  A    between atoms: C_2  and  C_3
REMARK    3  A    between atoms: C_2  and  C_4
REMARK    4  A    between atoms: N_8  and  S_9
REMARK    5  A    between atoms: S_9  and  C_12
REMARK    6  A    between atoms: N_16  and  N_17
REMARK                            x       y       z     vdW  Elec       q    Type
REMARK                         _______ _______ _______ _____ _____    ______ ____
ROOT
ATOM      1  C   UNL     1      -7.751  -3.940  20.768  0.00  0.00    +0.000 A 
ATOM      2  C   UNL     1      -8.648  -3.322  19.980  0.00  0.00    +0.000 A 
ATOM      3  S   UNL     1      -9.327  -4.413  18.797  0.00  0.00    +0.000 S 
ATOM      4  C   UNL     1      -8.352  -5.778  19.419  0.00  0.00    +0.000 A 
ATOM      5  N   UNL     1      -8.344  -6.999  18.999  0.00  0.00    +0.000 NA
ATOM      6  N   UNL     1      -7.597  -5.283  20.459  0.00  0.00    +0.000 N 
ATOM      7  H   UNL     1      -8.929  -2.278  20.032  0.00  0.00    +0.000 HD
ATOM      8  H   UNL     1      -6.941  -5.856  20.969  0.00  0.00    +0.000 HD
ENDROOT
BRANCH   5   9
ATOM      9  S   UNL     1      -9.276  -7.419  17.751  0.00  0.00    +0.000 S 
ATOM     10  O   UNL     1     -10.673  -7.211  18.072  0.00  0.00    +0.000 OA
ATOM     11  O   UNL     1      -8.701  -6.965  16.505  0.00  0.00    +0.000 OA
BRANCH   9  12
ATOM     12  C   UNL     1      -9.121  -9.188  17.678  0.00  0.00    +0.000 A 
ATOM     13  C   UNL     1      -9.330  -9.878  16.487  0.00  0.00    +0.000 A 
ATOM     14  C   UNL     1      -9.229 -11.271  16.490  0.00  0.00    +0.000 A 
ATOM     15  C   UNL     1      -8.916 -11.934  17.677  0.00  0.00    +0.000 A 
ATOM     16  N   UNL     1      -8.675 -13.316  17.706  0.00  0.00    +0.000 N 
ATOM     17  N   UNL     1      -8.751 -11.222  18.800  0.00  0.00    +0.000 N 
ATOM     18  C   UNL     1      -8.849  -9.885  18.848  0.00  0.00    +0.000 A 
ATOM     19  H   UNL     1      -9.569  -9.346  15.566  0.00  0.00    +0.000 HD
ATOM     20  H   UNL     1      -9.367 -11.827  15.568  0.00  0.00    +0.000 HD
ATOM     21  H   UNL     1      -9.467 -13.835  17.302  0.00  0.00    +0.000 HD
ATOM     22  H   UNL     1      -8.556 -11.782  19.631  0.00  0.00    +0.000 HD
ATOM     23  H   UNL     1      -8.699  -9.424  19.818  0.00  0.00    +0.000 HD
BRANCH  16  24
ATOM     24  N   UNL     1      -8.108 -13.864  18.882  0.00  0.00    +0.000 NA
ATOM     25  H   UNL     1      -7.128 -14.141  18.719  0.00  0.00    +0.000 HD
ATOM     26  H   UNL     1      -8.538 -14.792  19.046  0.00  0.00    +0.000 HD
ENDBRANCH  16  24
ENDBRANCH   9  12
ENDBRANCH   5   9
BRANCH   1  27
ATOM     27  C   UNL     1      -6.972  -3.259  21.866  0.00  0.00    +0.000 C 
ATOM     28  H   UNL     1      -7.057  -2.171  21.729  0.00  0.00    +0.000 HD
BRANCH  27  29
ATOM     29  C   UNL     1      -7.530  -3.575  23.255  0.00  0.00    +0.000 C 
ATOM     30  H   UNL     1      -6.880  -4.289  23.773  0.00  0.00    +0.000 HD
ATOM     31  H   UNL     1      -8.532  -4.013  23.202  0.00  0.00    +0.000 HD
ATOM     32  H   UNL     1      -7.584  -2.671  23.872  0.00  0.00    +0.000 HD
ENDBRANCH  27  29
BRANCH  27  33
ATOM     33  C   UNL     1      -5.485  -3.604  21.785  0.00  0.00    +0.000 C 
ATOM     34  H   UNL     1      -5.044  -3.736  22.780  0.00  0.00    +0.000 HD
ATOM     35  H   UNL     1      -4.932  -2.809  21.275  0.00  0.00    +0.000 HD
ATOM     36  H   UNL     1      -5.329  -4.530  21.221  0.00  0.00    +0.000 HD
ENDBRANCH  27  33
ENDBRANCH   1  27
TORSDOF 6
ENDMDL
MODEL 4
REMARK VINA RESULT:    -8.287      1.140      1.521
REMARK INTER + INTRA:         -10.499
REMARK INTER:                 -10.422
REMARK INTRA:                  -0.077
REMARK UNBOUND:                -0.032
REMARK  Name = 
REMARK  6 active torsions:
REMARK  status: ('A' for Active; 'I' for Inactive)
REMARK    1  A    between atoms: C_1  and  C_2
REMARK    2  A    between atoms: C_2  and  C_3
REMARK    3  A    between atoms: C_2  and  C_4
REMARK    4  A    between atoms: N_8  and  S_9
REMARK    5  A    between atoms: S_9  and  C_12
REMARK    6  A    between atoms: N_16  and  N_17
REMARK                            x       y       z     vdW  Elec       q    Type
REMARK                         _______ _______ _______ _____ _____    ______ ____
ROOT
ATOM      1  C   UNL     1      -8.806 -11.486  16.912  0.00  0.00    +0.000 A 
ATOM      2  C   UNL     1      -9.497 -11.084  15.830  0.00  0.00    +0.000 A 
ATOM      3  S   UNL     1      -9.891  -9.384  15.913  0.00  0.00    +0.000 S 
ATOM      4  C   UNL     1      -9.061  -9.214  17.488  0.00  0.00    +0.000 A 
ATOM      5  N   UNL     1      -8.930  -8.145  18.199  0.00  0.00    +0.000 NA
ATOM      6  N   UNL     1      -8.568 -10.458  17.812  0.00  0.00    +0.000 N 
ATOM      7  H   UNL     1      -9.800 -11.709  15.000  0.00  0.00    +0.000 HD
ATOM      8  H   UNL     1      -8.071 -10.634  18.673  0.00  0.00    +0.000 HD
ENDROOT
BRANCH   5   9
ATOM      9  S   UNL     1      -9.586  -6.762  17.691  0.00  0.00    +0.000 S 
ATOM     10  O   UNL     1      -8.997  -6.358  16.430  0.00  0.00    +0.000 OA
ATOM     11  O   UNL     1     -11.016  -6.764  17.902  0.00  0.00    +0.000 OA
BRANCH   9  12
ATOM     12  C   UNL     1      -8.981  -5.552  18.843  0.00  0.00    +0.000 A 
ATOM     13  C   UNL     1      -7.971  -5.865  19.748  0.00  0.00    +0.000 A 
ATOM     14  C   UNL     1      -7.554  -4.889  20.656  0.00  0.00    +0.000 A 
ATOM     15  C   UNL     1      -8.149  -3.627  20.628  0.00  0.00    +0.000 A 
ATOM     16  N   UNL     1      -7.678  -2.574  21.427  0.00  0.00    +0.000 N 
ATOM     17  N   UNL     1      -9.135  -3.388  19.753  0.00  0.00    +0.000 N 
ATOM     18  C   UNL     1      -9.576  -4.296  18.871  0.00  0.00    +0.000 A 
ATOM     19  H   UNL     1      -7.513  -6.854  19.755  0.00  0.00    +0.000 HD
ATOM     20  H   UNL     1      -6.754  -5.105  21.356  0.00  0.00    +0.000 HD
ATOM     21  H   UNL     1      -7.658  -2.848  22.419  0.00  0.00    +0.000 HD
ATOM     22  H   UNL     1      -9.540  -2.453  19.816  0.00  0.00    +0.000 HD
ATOM     23  H   UNL     1     -10.383  -3.984  18.218  0.00  0.00    +0.000 HD
BRANCH  16  24
ATOM     24  N   UNL     1      -8.155  -1.270  21.150  0.00  0.00    +0.000 NA
ATOM     25  H   UNL     1      -8.694  -0.903  21.950  0.00  0.00    +0.000 HD
ATOM     26  H   UNL     1      -8.907  -1.345  20.441  0.00  0.00    +0.000 HD
ENDBRANCH  16  24
ENDBRANCH   9  12
ENDBRANCH   5   9
BRANCH   1  27
ATOM     27  C   UNL     1      -8.344 -12.903  17.147  0.00  0.00    +0.000 C 
ATOM     28  H   UNL     1      -7.250 -12.898  17.256  0.00  0.00    +0.000 HD
BRANCH  27  29
ATOM     29  C   UNL     1      -8.916 -13.494  18.437  0.00  0.00    +0.000 C 
ATOM     30  H   UNL     1      -9.754 -14.162  18.211  0.00  0.00    +0.000 HD
ATOM     31  H   UNL     1      -9.283 -12.715  19.114  0.00  0.00    +0.000 HD
ATOM     32  H   UNL     1      -8.159 -14.080  18.970  0.00  0.00    +0.000 HD
ENDBRANCH  27  29
BRANCH  27  33
ATOM     33  C   UNL     1      -8.669 -13.796  15.949  0.00  0.00    +0.000 C 
ATOM     34  H   UNL     1      -9.369 -14.595  16.216  0.00  0.00    +0.000 HD
ATOM     35  H   UNL     1      -7.759 -14.263  15.559  0.00  0.00    +0.000 HD
ATOM     36  H   UNL     1      -9.116 -13.212  15.136  0.00  0.00    +0.000 HD
ENDBRANCH  27  33
ENDBRANCH   1  27
TORSDOF 6
ENDMDL
MODEL 5
REMARK VINA RESULT:    -7.900      1.509      1.955
REMARK INTER + INTRA:         -10.010
REMARK INTER:                 -10.596
REMARK INTRA:                   0.586
REMARK UNBOUND:                -0.032
REMARK  Name = 
REMARK  6 active torsions:
REMARK  status: ('A' for Active; 'I' for Inactive)
REMARK    1  A    between atoms: C_1  and  C_2
REMARK    2  A    between atoms: C_2  and  C_3
REMARK    3  A    between atoms: C_2  and  C_4
REMARK    4  A    between atoms: N_8  and  S_9
REMARK    5  A    between atoms: S_9  and  C_12
REMARK    6  A    between atoms: N_16  and  N_17
REMARK                            x       y       z     vdW  Elec       q    Type
REMARK                         _______ _______ _______ _____ _____    ______ ____
ROOT
ATOM      1  C   UNL     1      -8.497 -11.075  18.264  0.00  0.00    +0.000 A 
ATOM      2  C   UNL     1      -8.532 -10.646  19.537  0.00  0.00    +0.000 A 
ATOM      3  S   UNL     1      -8.906  -8.942  19.633  0.00  0.00    +0.000 S 
ATOM      4  C   UNL     1      -9.036  -8.817  17.854  0.00  0.00    +0.000 A 
ATOM      5  N   UNL     1      -9.322  -7.769  17.155  0.00  0.00    +0.000 NA
ATOM      6  N   UNL     1      -8.778 -10.072  17.349  0.00  0.00    +0.000 N 
ATOM      7  H   UNL     1      -8.343 -11.247  20.418  0.00  0.00    +0.000 HD
ATOM      8  H   UNL     1      -8.769 -10.263  16.357  0.00  0.00    +0.000 HD
ENDROOT
BRANCH   5   9
ATOM      9  S   UNL     1      -9.579  -6.360  17.897  0.00  0.00    +0.000 S 
ATOM     10  O   UNL     1      -9.881  -5.328  16.926  0.00  0.00    +0.000 OA
ATOM     11  O   UNL     1     -10.375  -6.546  19.089  0.00  0.00    +0.000 OA
BRANCH   9  12
ATOM     12  C   UNL     1      -7.977  -5.902  18.513  0.00  0.00    +0.000 A 
ATOM     13  C   UNL     1      -6.815  -6.361  17.899  0.00  0.00    +0.000 A 
ATOM     14  C   UNL     1      -5.580  -5.999  18.442  0.00  0.00    +0.000 A 
ATOM     15  C   UNL     1      -5.540  -5.183  19.574  0.00  0.00    +0.000 A 
ATOM     16  N   UNL     1      -4.329  -4.685  20.078  0.00  0.00    +0.000 N 
ATOM     17  N   UNL     1      -6.689  -4.792  20.138  0.00  0.00    +0.000 N 
ATOM     18  C   UNL     1      -7.898  -5.123  19.660  0.00  0.00    +0.000 A 
ATOM     19  H   UNL     1      -6.862  -6.994  17.013  0.00  0.00    +0.000 HD
ATOM     20  H   UNL     1      -4.661  -6.328  17.967  0.00  0.00    +0.000 HD
ATOM     21  H   UNL     1      -3.668  -5.452  20.268  0.00  0.00    +0.000 HD
ATOM     22  H   UNL     1      -6.576  -4.225  20.980  0.00  0.00    +0.000 HD
ATOM     23  H   UNL     1      -8.754  -4.749  20.209  0.00  0.00    +0.000 HD
BRANCH  16  24
ATOM     24  N   UNL     1      -4.392  -3.662  21.056  0.00  0.00    +0.000 NA
ATOM     25  H   UNL     1      -4.630  -2.758  20.620  0.00  0.00    +0.000 HD
ATOM     26  H   UNL     1      -3.427  -3.464  21.378  0.00  0.00    +0.000 HD
ENDBRANCH  16  24
ENDBRANCH   9  12
ENDBRANCH   5   9
BRANCH   1  27
ATOM     27  C   UNL     1      -8.174 -12.491  17.853  0.00  0.00    +0.000 C 
ATOM     28  H   UNL     1      -7.098 -12.658  18.001  0.00  0.00    +0.000 HD
BRANCH  27  29
ATOM     29  C   UNL     1      -8.905 -13.526  18.708  0.00  0.00    +0.000 C 
ATOM     30  H   UNL     1      -9.660 -14.049  18.112  0.00  0.00    +0.000 HD
ATOM     31  H   UNL     1      -9.415 -13.064  19.560  0.00  0.00    +0.000 HD
ATOM     32  H   UNL     1      -8.209 -14.279  19.095  0.00  0.00    +0.000 HD
ENDBRANCH  27  29
BRANCH  27  33
ATOM     33  C   UNL     1      -8.460 -12.713  16.367  0.00  0.00    +0.000 C 
ATOM     34  H   UNL     1      -7.553 -12.980  15.814  0.00  0.00    +0.000 HD
ATOM     35  H   UNL     1      -8.874 -11.805  15.915  0.00  0.00    +0.000 HD
ATOM     36  H   UNL     1      -9.192 -13.516  16.226  0.00  0.00    +0.000 HD
ENDBRANCH  27  33
ENDBRANCH   1  27
TORSDOF 6
ENDMDL
MODEL 6
REMARK VINA RESULT:    -7.804      4.124      5.230
REMARK INTER + INTRA:          -9.888
REMARK INTER:                  -9.782
REMARK INTRA:                  -0.107
REMARK UNBOUND:                -0.032
REMARK  Name = 
REMARK  6 active torsions:
REMARK  status: ('A' for Active; 'I' for Inactive)
REMARK    1  A    between atoms: C_1  and  C_2
REMARK    2  A    between atoms: C_2  and  C_3
REMARK    3  A    between atoms: C_2  and  C_4
REMARK    4  A    between atoms: N_8  and  S_9
REMARK    5  A    between atoms: S_9  and  C_12
REMARK    6  A    between atoms: N_16  and  N_17
REMARK                            x       y       z     vdW  Elec       q    Type
REMARK                         _______ _______ _______ _____ _____    ______ ____
ROOT
ATOM      1  C   UNL     1      -8.521 -11.384  17.964  0.00  0.00    +0.000 A 
ATOM      2  C   UNL     1      -8.436 -10.900  19.215  0.00  0.00    +0.000 A 
ATOM      3  S   UNL     1      -8.836  -9.201  19.279  0.00  0.00    +0.000 S 
ATOM      4  C   UNL     1      -9.149  -9.156  17.518  0.00  0.00    +0.000 A 
ATOM      5  N   UNL     1      -9.528  -8.145  16.810  0.00  0.00    +0.000 NA
ATOM      6  N   UNL     1      -8.916 -10.426  17.042  0.00  0.00    +0.000 N 
ATOM      7  H   UNL     1      -8.145 -11.459  20.096  0.00  0.00    +0.000 HD
ATOM      8  H   UNL     1      -9.003 -10.660  16.063  0.00  0.00    +0.000 HD
ENDROOT
BRANCH   5   9
ATOM      9  S   UNL     1      -9.740  -6.710  17.516  0.00  0.00    +0.000 S 
ATOM     10  O   UNL     1     -10.916  -6.734  18.363  0.00  0.00    +0.000 OA
ATOM     11  O   UNL     1      -8.479  -6.170  17.970  0.00  0.00    +0.000 OA
BRANCH   9  12
ATOM     12  C   UNL     1     -10.211  -5.640  16.177  0.00  0.00    +0.000 A 
ATOM     13  C   UNL     1     -11.342  -4.832  16.268  0.00  0.00    +0.000 A 
ATOM     14  C   UNL     1     -11.688  -4.034  15.176  0.00  0.00    +0.000 A 
ATOM     15  C   UNL     1     -10.893  -4.058  14.029  0.00  0.00    +0.000 A 
ATOM     16  N   UNL     1     -11.122  -3.181  12.958  0.00  0.00    +0.000 N 
ATOM     17  N   UNL     1      -9.831  -4.873  13.986  0.00  0.00    +0.000 N 
ATOM     18  C   UNL     1      -9.466  -5.665  15.005  0.00  0.00    +0.000 A 
ATOM     19  H   UNL     1     -11.950  -4.821  17.173  0.00  0.00    +0.000 HD
ATOM     20  H   UNL     1     -12.553  -3.381  15.233  0.00  0.00    +0.000 HD
ATOM     21  H   UNL     1     -12.092  -3.258  12.622  0.00  0.00    +0.000 HD
ATOM     22  H   UNL     1      -9.320  -4.857  13.102  0.00  0.00    +0.000 HD
ATOM     23  H   UNL     1      -8.590  -6.284  14.847  0.00  0.00    +0.000 HD
BRANCH  16  24
ATOM     24  N   UNL     1     -10.123  -3.084  11.958  0.00  0.00    +0.000 NA
ATOM     25  H   UNL     1     -10.399  -2.405  11.233  0.00  0.00    +0.000 HD
ATOM     26  H   UNL     1     -10.134  -3.960  11.405  0.00  0.00    +0.000 HD
ENDBRANCH  16  24
ENDBRANCH   9  12
ENDBRANCH   5   9
BRANCH   1  27
ATOM     27  C   UNL     1      -8.210 -12.810  17.580  0.00  0.00    +0.000 C 
ATOM     28  H   UNL     1      -7.135 -12.983  17.732  0.00  0.00    +0.000 HD
BRANCH  27  29
ATOM     29  C   UNL     1      -8.950 -13.822  18.455  0.00  0.00    +0.000 C 
ATOM     30  H   UNL     1      -8.319 -14.133  19.295  0.00  0.00    +0.000 HD
ATOM     31  H   UNL     1      -9.226 -14.721  17.894  0.00  0.00    +0.000 HD
ATOM     32  H   UNL     1      -9.865 -13.386  18.873  0.00  0.00    +0.000 HD
ENDBRANCH  27  29
BRANCH  27  33
ATOM     33  C   UNL     1      -8.497 -13.058  16.099  0.00  0.00    +0.000 C 
ATOM     34  H   UNL     1      -8.194 -14.065  15.790  0.00  0.00    +0.000 HD
ATOM     35  H   UNL     1      -7.955 -12.339  15.476  0.00  0.00    +0.000 HD
ATOM     36  H   UNL     1      -9.565 -12.945  15.884  0.00  0.00    +0.000 HD
ENDBRANCH  27  33
ENDBRANCH   1  27
TORSDOF 6
ENDMDL
MODEL 7
REMARK VINA RESULT:    -7.570      4.108      7.621
REMARK INTER + INTRA:          -9.593
REMARK INTER:                  -9.596
REMARK INTRA:                   0.003
REMARK UNBOUND:                -0.032
REMARK  Name = 
REMARK  6 active torsions:
REMARK  status: ('A' for Active; 'I' for Inactive)
REMARK    1  A    between atoms: C_1  and  C_2
REMARK    2  A    between atoms: C_2  and  C_3
REMARK    3  A    between atoms: C_2  and  C_4
REMARK    4  A    between atoms: N_8  and  S_9
REMARK    5  A    between atoms: S_9  and  C_12
REMARK    6  A    between atoms: N_16  and  N_17
REMARK                            x       y       z     vdW  Elec       q    Type
REMARK                         _______ _______ _______ _____ _____    ______ ____
ROOT
ATOM      1  C   UNL     1     -11.336  -4.080  14.992  0.00  0.00    +0.000 A 
ATOM      2  C   UNL     1     -11.336  -3.512  16.211  0.00  0.00    +0.000 A 
ATOM      3  S   UNL     1     -10.683  -4.587  17.423  0.00  0.00    +0.000 S 
ATOM      4  C   UNL     1     -10.384  -5.863  16.205  0.00  0.00    +0.000 A 
ATOM      5  N   UNL     1      -9.864  -7.030  16.396  0.00  0.00    +0.000 NA
ATOM      6  N   UNL     1     -10.811  -5.363  14.995  0.00  0.00    +0.000 N 
ATOM      7  H   UNL     1     -11.699  -2.521  16.452  0.00  0.00    +0.000 HD
ATOM      8  H   UNL     1     -10.769  -5.903  14.143  0.00  0.00    +0.000 HD
ENDROOT
BRANCH   5   9
ATOM      9  S   UNL     1      -9.431  -7.478  17.884  0.00  0.00    +0.000 S 
ATOM     10  O   UNL     1      -8.101  -6.992  18.189  0.00  0.00    +0.000 OA
ATOM     11  O   UNL     1     -10.533  -7.325  18.806  0.00  0.00    +0.000 OA
BRANCH   9  12
ATOM     12  C   UNL     1      -9.215  -9.237  17.755  0.00  0.00    +0.000 A 
ATOM     13  C   UNL     1      -9.435  -9.900  16.551  0.00  0.00    +0.000 A 
ATOM     14  C   UNL     1      -9.284 -11.288  16.510  0.00  0.00    +0.000 A 
ATOM     15  C   UNL     1      -8.911 -11.973  17.668  0.00  0.00    +0.000 A 
ATOM     16  N   UNL     1      -8.620 -13.345  17.649  0.00  0.00    +0.000 N 
ATOM     17  N   UNL     1      -8.739 -11.287  18.805  0.00  0.00    +0.000 N 
ATOM     18  C   UNL     1      -8.883  -9.956  18.896  0.00  0.00    +0.000 A 
ATOM     19  H   UNL     1      -9.721  -9.351  15.653  0.00  0.00    +0.000 HD
ATOM     20  H   UNL     1      -9.429 -11.823  15.577  0.00  0.00    +0.000 HD
ATOM     21  H   UNL     1      -9.405 -13.881  17.253  0.00  0.00    +0.000 HD
ATOM     22  H   UNL     1      -8.498 -11.862  19.615  0.00  0.00    +0.000 HD
ATOM     23  H   UNL     1      -8.721  -9.518  19.874  0.00  0.00    +0.000 HD
BRANCH  16  24
ATOM     24  N   UNL     1      -7.999 -13.904  18.792  0.00  0.00    +0.000 NA
ATOM     25  H   UNL     1      -7.034 -14.198  18.575  0.00  0.00    +0.000 HD
ATOM     26  H   UNL     1      -8.435 -14.825  18.979  0.00  0.00    +0.000 HD
ENDBRANCH  16  24
ENDBRANCH   9  12
ENDBRANCH   5   9
BRANCH   1  27
ATOM     27  C   UNL     1     -11.862  -3.414  13.745  0.00  0.00    +0.000 C 
ATOM     28  H   UNL     1     -12.920  -3.690  13.624  0.00  0.00    +0.000 HD
BRANCH  27  29
ATOM     29  C   UNL     1     -11.810  -1.888  13.834  0.00  0.00    +0.000 C 
ATOM     30  H   UNL     1     -11.437  -1.465  12.895  0.00  0.00    +0.000 HD
ATOM     31  H   UNL     1     -11.149  -1.549  14.639  0.00  0.00    +0.000 HD
ATOM     32  H   UNL     1     -12.807  -1.470  14.012  0.00  0.00    +0.000 HD
ENDBRANCH  27  29
BRANCH  27  33
ATOM     33  C   UNL     1     -11.126  -3.912  12.500  0.00  0.00    +0.000 C 
ATOM     34  H   UNL     1     -10.560  -3.109  12.016  0.00  0.00    +0.000 HD
ATOM     35  H   UNL     1     -11.835  -4.313  11.768  0.00  0.00    +0.000 HD
ATOM     36  H   UNL     1     -10.425  -4.715  12.757  0.00  0.00    +0.000 HD
ENDBRANCH  27  33
ENDBRANCH   1  27
TORSDOF 6
ENDMDL
MODEL 8
REMARK VINA RESULT:    -7.275      4.104      4.898
REMARK INTER + INTRA:          -9.221
REMARK INTER:                  -9.120
REMARK INTRA:                  -0.100
REMARK UNBOUND:                -0.032
REMARK  Name = 
REMARK  6 active torsions:
REMARK  status: ('A' for Active; 'I' for Inactive)
REMARK    1  A    between atoms: C_1  and  C_2
REMARK    2  A    between atoms: C_2  and  C_3
REMARK    3  A    between atoms: C_2  and  C_4
REMARK    4  A    between atoms: N_8  and  S_9
REMARK    5  A    between atoms: S_9  and  C_12
REMARK    6  A    between atoms: N_16  and  N_17
REMARK                            x       y       z     vdW  Elec       q    Type
REMARK                         _______ _______ _______ _____ _____    ______ ____
ROOT
ATOM      1  C   UNL     1      -9.142 -10.641  16.962  0.00  0.00    +0.000 A 
ATOM      2  C   UNL     1      -8.784 -10.451  18.244  0.00  0.00    +0.000 A 
ATOM      3  S   UNL     1      -9.057  -8.802  18.751  0.00  0.00    +0.000 S 
ATOM      4  C   UNL     1      -9.704  -8.359  17.143  0.00  0.00    +0.000 A 
ATOM      5  N   UNL     1     -10.149  -7.208  16.761  0.00  0.00    +0.000 NA
ATOM      6  N   UNL     1      -9.648  -9.495  16.367  0.00  0.00    +0.000 N 
ATOM      7  H   UNL     1      -8.363 -11.198  18.905  0.00  0.00    +0.000 HD
ATOM      8  H   UNL     1      -9.940  -9.503  15.401  0.00  0.00    +0.000 HD
ENDROOT
BRANCH   5   9
ATOM      9  S   UNL     1     -10.129  -5.963  17.786  0.00  0.00    +0.000 S 
ATOM     10  O   UNL     1     -11.059  -6.192  18.874  0.00  0.00    +0.000 OA
ATOM     11  O   UNL     1      -8.776  -5.511  18.018  0.00  0.00    +0.000 OA
BRANCH   9  12
ATOM     12  C   UNL     1     -10.876  -4.639  16.867  0.00  0.00    +0.000 A 
ATOM     13  C   UNL     1     -10.707  -4.538  15.488  0.00  0.00    +0.000 A 
ATOM     14  C   UNL     1     -11.287  -3.460  14.817  0.00  0.00    +0.000 A 
ATOM     15  C   UNL     1     -12.026  -2.520  15.537  0.00  0.00    +0.000 A 
ATOM     16  N   UNL     1     -12.736  -1.495  14.894  0.00  0.00    +0.000 N 
ATOM     17  N   UNL     1     -12.134  -2.652  16.865  0.00  0.00    +0.000 N 
ATOM     18  C   UNL     1     -11.586  -3.663  17.555  0.00  0.00    +0.000 A 
ATOM     19  H   UNL     1     -10.130  -5.283  14.939  0.00  0.00    +0.000 HD
ATOM     20  H   UNL     1     -11.186  -3.374  13.739  0.00  0.00    +0.000 HD
ATOM     21  H   UNL     1     -12.115  -0.947  14.281  0.00  0.00    +0.000 HD
ATOM     22  H   UNL     1     -12.663  -1.908  17.323  0.00  0.00    +0.000 HD
ATOM     23  H   UNL     1     -11.741  -3.657  18.627  0.00  0.00    +0.000 HD
BRANCH  16  24
ATOM     24  N   UNL     1     -13.665  -0.752  15.663  0.00  0.00    +0.000 NA
ATOM     25  H   UNL     1     -14.632  -0.978  15.382  0.00  0.00    +0.000 HD
ATOM     26  H   UNL     1     -13.613   0.238  15.364  0.00  0.00    +0.000 HD
ENDBRANCH  16  24
ENDBRANCH   9  12
ENDBRANCH   5   9
BRANCH   1  27
ATOM     27  C   UNL     1      -9.002 -11.951  16.226  0.00  0.00    +0.000 C 
ATOM     28  H   UNL     1     -10.004 -12.288  15.923  0.00  0.00    +0.000 HD
BRANCH  27  29
ATOM     29  C   UNL     1      -8.176 -11.813  14.947  0.00  0.00    +0.000 C 
ATOM     30  H   UNL     1      -7.216 -11.332  15.163  0.00  0.00    +0.000 HD
ATOM     31  H   UNL     1      -8.689 -11.207  14.193  0.00  0.00    +0.000 HD
ATOM     32  H   UNL     1      -7.962 -12.795  14.508  0.00  0.00    +0.000 HD
ENDBRANCH  27  29
BRANCH  27  33
ATOM     33  C   UNL     1      -8.422 -13.036  17.134  0.00  0.00    +0.000 C 
ATOM     34  H   UNL     1      -7.400 -12.799  17.448  0.00  0.00    +0.000 HD
ATOM     35  H   UNL     1      -8.399 -14.000  16.616  0.00  0.00    +0.000 HD
ATOM     36  H   UNL     1      -9.033 -13.158  18.035  0.00  0.00    +0.000 HD
ENDBRANCH  27  33
ENDBRANCH   1  27
TORSDOF 6
ENDMDL
MODEL 9
REMARK VINA RESULT:    -6.884      2.532      7.323
REMARK INTER + INTRA:          -8.727
REMARK INTER:                  -9.239
REMARK INTRA:                   0.512
REMARK UNBOUND:                -0.032
REMARK  Name = 
REMARK  6 active torsions:
REMARK  status: ('A' for Active; 'I' for Inactive)
REMARK    1  A    between atoms: C_1  and  C_2
REMARK    2  A    between atoms: C_2  and  C_3
REMARK    3  A    between atoms: C_2  and  C_4
REMARK    4  A    between atoms: N_8  and  S_9
REMARK    5  A    between atoms: S_9  and  C_12
REMARK    6  A    between atoms: N_16  and  N_17
REMARK                            x       y       z     vdW  Elec       q    Type
REMARK                         _______ _______ _______ _____ _____    ______ ____
ROOT
ATOM      1  C   UNL     1      -6.773  -5.735  19.498  0.00  0.00    +0.000 A 
ATOM      2  C   UNL     1      -7.379  -6.683  20.235  0.00  0.00    +0.000 A 
ATOM      3  S   UNL     1      -8.780  -7.334  19.421  0.00  0.00    +0.000 S 
ATOM      4  C   UNL     1      -8.516  -6.274  18.005  0.00  0.00    +0.000 A 
ATOM      5  N   UNL     1      -9.218  -6.213  16.922  0.00  0.00    +0.000 NA
ATOM      6  N   UNL     1      -7.397  -5.519  18.279  0.00  0.00    +0.000 N 
ATOM      7  H   UNL     1      -7.074  -7.017  21.218  0.00  0.00    +0.000 HD
ATOM      8  H   UNL     1      -7.047  -4.821  17.639  0.00  0.00    +0.000 HD
ENDROOT
BRANCH   5   9
ATOM      9  S   UNL     1     -10.519  -7.152  16.760  0.00  0.00    +0.000 S 
ATOM     10  O   UNL     1     -11.070  -7.478  18.060  0.00  0.00    +0.000 OA
ATOM     11  O   UNL     1     -11.349  -6.695  15.669  0.00  0.00    +0.000 OA
BRANCH   9  12
ATOM     12  C   UNL     1      -9.861  -8.699  16.184  0.00  0.00    +0.000 A 
ATOM     13  C   UNL     1      -9.122  -8.770  15.007  0.00  0.00    +0.000 A 
ATOM     14  C   UNL     1      -8.655 -10.015  14.580  0.00  0.00    +0.000 A 
ATOM     15  C   UNL     1      -8.931 -11.151  15.343  0.00  0.00    +0.000 A 
ATOM     16  N   UNL     1      -8.376 -12.400  15.029  0.00  0.00    +0.000 N 
ATOM     17  N   UNL     1      -9.669 -11.028  16.453  0.00  0.00    +0.000 N 
ATOM     18  C   UNL     1     -10.148  -9.856  16.897  0.00  0.00    +0.000 A 
ATOM     19  H   UNL     1      -8.910  -7.874  14.424  0.00  0.00    +0.000 HD
ATOM     20  H   UNL     1      -8.058 -10.091  13.676  0.00  0.00    +0.000 HD
ATOM     21  H   UNL     1      -8.591 -12.663  14.057  0.00  0.00    +0.000 HD
ATOM     22  H   UNL     1      -9.854 -11.908  16.939  0.00  0.00    +0.000 HD
ATOM     23  H   UNL     1     -10.737  -9.888  17.807  0.00  0.00    +0.000 HD
BRANCH  16  24
ATOM     24  N   UNL     1      -8.487 -13.433  15.991  0.00  0.00    +0.000 NA
ATOM     25  H   UNL     1      -9.435 -13.841  15.980  0.00  0.00    +0.000 HD
ATOM     26  H   UNL     1      -8.484 -13.000  16.932  0.00  0.00    +0.000 HD
ENDBRANCH  16  24
ENDBRANCH   9  12
ENDBRANCH   5   9
BRANCH   1  27
ATOM     27  C   UNL     1      -5.553  -4.966  19.940  0.00  0.00    +0.000 C 
ATOM     28  H   UNL     1      -5.305  -4.232  19.160  0.00  0.00    +0.000 HD
BRANCH  27  29
ATOM     29  C   UNL     1      -5.797  -4.179  21.228  0.00  0.00    +0.000 C 
ATOM     30  H   UNL     1      -5.380  -3.169  21.143  0.00  0.00    +0.000 HD
ATOM     31  H   UNL     1      -5.330  -4.660  22.095  0.00  0.00    +0.000 HD
ATOM     32  H   UNL     1      -6.869  -4.078  21.431  0.00  0.00    +0.000 HD
ENDBRANCH  27  29
BRANCH  27  33
ATOM     33  C   UNL     1      -4.342  -5.888  20.087  0.00  0.00    +0.000 C 
ATOM     34  H   UNL     1      -4.642  -6.934  20.219  0.00  0.00    +0.000 HD
ATOM     35  H   UNL     1      -3.741  -5.599  20.955  0.00  0.00    +0.000 HD
ATOM     36  H   UNL     1      -3.697  -5.829  19.203  0.00  0.00    +0.000 HD
ENDBRANCH  27  33
ENDBRANCH   1  27
TORSDOF 6
ENDMDL
