
 OpenBabel01112423133D

 55 58  0  0  1  0  0  0  0  0999 V2000
    3.1773    0.5814    1.4772 C   0  0  0  0  0  0  0  0  0  0  0  0
    2.7217   -0.8757    1.4984 C   0  0  0  0  0  0  0  0  0  0  0  0
    1.1995   -0.9417    1.6319 C   0  0  0  0  0  0  0  0  0  0  0  0
    3.2100   -1.7331   -0.0387 S   0  0  0  0  0  0  0  0  0  0  0  0
    4.9430   -1.7272    0.0911 C   0  0  0  0  0  0  0  0  0  0  0  0
    5.5737   -1.6947    1.2144 N   0  0  0  0  0  0  0  0  0  0  0  0
    6.9466   -1.6548    1.1656 C   0  0  0  0  0  0  0  0  0  0  0  0
    7.6400   -1.7437    0.0056 C   0  0  0  0  0  0  0  0  0  0  0  0
    6.8834   -1.9188   -1.2454 C   0  0  0  0  0  0  0  0  0  0  0  0
    7.4118   -2.2011   -2.3136 O   0  0  0  0  0  0  0  0  0  0  0  0
    5.5378   -1.7755   -1.1247 N   0  0  0  0  0  0  0  0  0  0  0  0
    9.1564   -1.6289   -0.0626 C   0  0  1  0  0  0  0  0  0  0  0  0
    9.5477   -0.3521   -0.8126 C   0  0  0  0  0  0  0  0  0  0  0  0
    9.1917    0.9124   -0.3299 C   0  0  0  0  0  0  0  0  0  0  0  0
    9.5075    2.0701   -1.0510 C   0  0  0  0  0  0  0  0  0  0  0  0
   10.1773    2.0266   -2.2827 C   0  0  0  0  0  0  0  0  0  0  0  0
   10.4045    3.1636   -3.0480 N   0  0  0  0  0  0  0  0  0  0  0  0
   11.5944    3.2767   -3.8874 C   0  0  0  0  0  0  0  0  0  0  0  0
    9.7391    4.4302   -2.7607 C   0  0  0  0  0  0  0  0  0  0  0  0
   10.5478    0.7482   -2.7334 C   0  0  0  0  0  0  0  0  0  0  0  0
   10.2499   -0.4197   -2.0160 C   0  0  0  0  0  0  0  0  0  0  0  0
    9.7939   -1.6429    1.3172 C   0  0  0  0  0  0  0  0  0  0  0  0
    9.0463   -1.5427    2.4363 C   0  0  0  0  0  0  0  0  0  0  0  0
    9.6425   -1.4845    3.8215 C   0  0  0  0  0  0  0  0  0  0  0  0
   11.0925   -1.9621    3.8708 C   0  0  0  0  0  0  0  0  0  0  0  0
   11.9065   -1.3555    2.7410 C   0  0  0  0  0  0  0  0  0  0  0  0
   11.2765   -1.7125    1.4138 C   0  0  0  0  0  0  0  0  0  0  0  0
   11.9637   -2.0177    0.4412 O   0  0  0  0  0  0  0  0  0  0  0  0
    7.6720   -1.5008    2.3353 N   0  0  0  0  0  0  0  0  0  0  0  0
    2.8588    1.0908    2.3936 H   0  0  0  0  0  0  0  0  0  0  0  0
    2.7490    1.1283    0.6299 H   0  0  0  0  0  0  0  0  0  0  0  0
    4.2666    0.6710    1.4256 H   0  0  0  0  0  0  0  0  0  0  0  0
    3.1650   -1.3943    2.3553 H   0  0  0  0  0  0  0  0  0  0  0  0
    0.6923   -0.4625    0.7860 H   0  0  0  0  0  0  0  0  0  0  0  0
    0.8743   -0.4234    2.5416 H   0  0  0  0  0  0  0  0  0  0  0  0
    0.8456   -1.9760    1.7045 H   0  0  0  0  0  0  0  0  0  0  0  0
    4.9739   -1.8723   -1.9541 H   0  0  0  0  0  0  0  0  0  0  0  0
    9.5268   -2.5094   -0.6057 H   0  0  0  0  0  0  0  0  0  0  0  0
    8.6515    1.0145    0.6085 H   0  0  0  0  0  0  0  0  0  0  0  0
    9.2115    3.0150   -0.6081 H   0  0  0  0  0  0  0  0  0  0  0  0
   12.1208    2.3378   -4.0723 H   0  0  0  0  0  0  0  0  0  0  0  0
   12.3148    3.9605   -3.4240 H   0  0  0  0  0  0  0  0  0  0  0  0
   11.3147    3.6904   -4.8625 H   0  0  0  0  0  0  0  0  0  0  0  0
    8.8112    4.3259   -2.1901 H   0  0  0  0  0  0  0  0  0  0  0  0
    9.4553    4.9121   -3.7025 H   0  0  0  0  0  0  0  0  0  0  0  0
   10.4109    5.1054   -2.2198 H   0  0  0  0  0  0  0  0  0  0  0  0
   11.0403    0.6169   -3.6922 H   0  0  0  0  0  0  0  0  0  0  0  0
   10.5515   -1.3822   -2.4252 H   0  0  0  0  0  0  0  0  0  0  0  0
    9.0508   -2.0929    4.5159 H   0  0  0  0  0  0  0  0  0  0  0  0
    9.5881   -0.4472    4.1760 H   0  0  0  0  0  0  0  0  0  0  0  0
   11.1145   -3.0565    3.7880 H   0  0  0  0  0  0  0  0  0  0  0  0
   11.5377   -1.7045    4.8384 H   0  0  0  0  0  0  0  0  0  0  0  0
   12.9282   -1.7496    2.7681 H   0  0  0  0  0  0  0  0  0  0  0  0
   11.9581   -0.2637    2.8222 H   0  0  0  0  0  0  0  0  0  0  0  0
    7.1078   -1.5037    3.1771 H   0  0  0  0  0  0  0  0  0  0  0  0
  1  2  1  0  0  0  0
  1 30  1  0  0  0  0
  1 31  1  0  0  0  0
  1 32  1  0  0  0  0
  2  3  1  0  0  0  0
  2  4  1  0  0  0  0
  2 33  1  0  0  0  0
  3 34  1  0  0  0  0
  3 35  1  0  0  0  0
  3 36  1  0  0  0  0
  4  5  1  0  0  0  0
  5  6  2  0  0  0  0
  5 11  1  0  0  0  0
  6  7  1  0  0  0  0
  7  8  2  0  0  0  0
  7 29  1  0  0  0  0
  8  9  1  0  0  0  0
  8 12  1  0  0  0  0
  9 10  2  0  0  0  0
  9 11  1  0  0  0  0
 11 37  1  0  0  0  0
 12 22  1  0  0  0  0
 12 13  1  0  0  0  0
 12 38  1  6  0  0  0
 13 14  1  0  0  0  0
 13 21  2  0  0  0  0
 14 15  2  0  0  0  0
 14 39  1  0  0  0  0
 15 16  1  0  0  0  0
 15 40  1  0  0  0  0
 16 17  1  0  0  0  0
 16 20  2  0  0  0  0
 17 18  1  0  0  0  0
 17 19  1  0  0  0  0
 18 41  1  0  0  0  0
 18 42  1  0  0  0  0
 18 43  1  0  0  0  0
 19 44  1  0  0  0  0
 19 45  1  0  0  0  0
 19 46  1  0  0  0  0
 20 21  1  0  0  0  0
 20 47  1  0  0  0  0
 21 48  1  0  0  0  0
 22 23  2  0  0  0  0
 22 27  1  0  0  0  0
 23 24  1  0  0  0  0
 23 29  1  0  0  0  0
 24 25  1  0  0  0  0
 24 49  1  0  0  0  0
 24 50  1  0  0  0  0
 25 26  1  0  0  0  0
 25 51  1  0  0  0  0
 25 52  1  0  0  0  0
 26 27  1  0  0  0  0
 26 53  1  0  0  0  0
 26 54  1  0  0  0  0
 27 28  2  0  0  0  0
 29 55  1  0  0  0  0
M  END
$$$$
