MODEL 1
REMARK VINA RESULT:    -9.665      0.000      0.000
REMARK INTER + INTRA:         -14.195
REMARK INTER:                 -13.338
REMARK INTRA:                  -0.857
REMARK UNBOUND:                -0.857
REMARK  Name = 
REMARK  8 active torsions:
REMARK  status: ('A' for Active; 'I' for Inactive)
REMARK    1  A    between atoms: C_1  and  C_2
REMARK    2  A    between atoms: C_2  and  C_3
REMARK    3  A    between atoms: C_11  and  N_12
REMARK    4  A    between atoms: C_13  and  C_14
REMARK    5  A    between atoms: C_16  and  C_17
REMARK    6  A    between atoms: C_20  and  C_21
REMARK    7  A    between atoms: C_21  and  O_22
REMARK    8  A    between atoms: O_22  and  C_23
REMARK                            x       y       z     vdW  Elec       q    Type
REMARK                         _______ _______ _______ _____ _____    ______ ____
ROOT
ATOM      1  C   UNL     1      -8.808  -1.578  23.786  0.00  0.00    +0.000 C 
ATOM      2  C   UNL     1      -8.260  -3.012  23.789  0.00  0.00    +0.000 C 
ATOM      3  C   UNL     1      -7.889  -3.444  22.379  0.00  0.00    +0.000 C 
ATOM      4  O   UNL     1      -6.820  -4.006  22.157  0.00  0.00    +0.000 OA
ATOM      5  C   UNL     1      -8.851  -3.135  21.282  0.00  0.00    +0.000 C 
ATOM      6  C   UNL     1      -9.836  -2.256  21.549  0.00  0.00    +0.000 C 
ATOM      7  C   UNL     1     -10.035  -1.535  22.855  0.00  0.00    +0.000 C 
ATOM      8  O   UNL     1     -10.747  -1.859  20.587  0.00  0.00    +0.000 OA
ATOM      9  C   UNL     1     -10.802  -2.499  19.360  0.00  0.00    +0.000 C 
ATOM     10  C   UNL     1      -9.864  -3.402  18.996  0.00  0.00    +0.000 C 
ATOM     11  C   UNL     1      -8.641  -3.671  19.878  0.00  0.00    +0.000 C 
ATOM     12  H   UNL     1      -8.999  -3.724  24.178  0.00  0.00    +0.000 HD
ATOM     13  H   UNL     1      -7.371  -3.083  24.424  0.00  0.00    +0.000 HD
ATOM     14  H   UNL     1     -10.905  -1.985  23.350  0.00  0.00    +0.000 HD
ATOM     15  H   UNL     1     -10.299  -0.488  22.656  0.00  0.00    +0.000 HD
ATOM     16  H   UNL     1      -7.869  -2.997  19.466  0.00  0.00    +0.000 HD
ENDROOT
BRANCH  11  17
ATOM     17  C   UNL     1      -8.022  -5.042  19.703  0.00  0.00    +0.000 A 
ATOM     18  C   UNL     1      -6.721  -5.399  19.384  0.00  0.00    +0.000 A 
ATOM     19  C   UNL     1      -6.667  -6.804  19.422  0.00  0.00    +0.000 A 
ATOM     20  C   UNL     1      -7.930  -7.236  19.771  0.00  0.00    +0.000 A 
ATOM     21  O   UNL     1      -8.774  -6.164  19.909  0.00  0.00    +0.000 OA
ATOM     22  H   UNL     1      -5.909  -4.721  19.170  0.00  0.00    +0.000 HD
ATOM     23  H   UNL     1      -5.805  -7.437  19.246  0.00  0.00    +0.000 HD
BRANCH  20  24
ATOM     24  C   UNL     1      -8.469  -8.594  20.045  0.00  0.00    +0.000 C 
ATOM     25  H   UNL     1      -8.876  -8.643  21.062  0.00  0.00    +0.000 HD
ATOM     26  H   UNL     1      -7.658  -9.324  19.932  0.00  0.00    +0.000 HD
BRANCH  24  27
ATOM     27  O   UNL     1      -9.483  -8.840  19.074  0.00  0.00    +0.000 OA
BRANCH  27  28
ATOM     28  C   UNL     1      -9.246  -9.810  18.140  0.00  0.00    +0.000 A 
ATOM     29  C   UNL     1      -8.682 -11.066  18.389  0.00  0.00    +0.000 A 
ATOM     30  C   UNL     1      -8.509 -11.973  17.337  0.00  0.00    +0.000 A 
ATOM     31  C   UNL     1      -8.892 -11.625  16.046  0.00  0.00    +0.000 A 
ATOM     32  F   UNL     1      -8.728 -12.504  15.049  0.00  0.00    +0.000 F 
ATOM     33  C   UNL     1      -9.440 -10.379  15.777  0.00  0.00    +0.000 A 
ATOM     34  C   UNL     1      -9.607  -9.483  16.826  0.00  0.00    +0.000 A 
ATOM     35  F   UNL     1     -10.137  -8.280  16.557  0.00  0.00    +0.000 F 
ATOM     36  H   UNL     1      -8.366 -11.370  19.382  0.00  0.00    +0.000 HD
ATOM     37  H   UNL     1      -8.075 -12.954  17.517  0.00  0.00    +0.000 HD
ATOM     38  H   UNL     1      -9.734 -10.109  14.770  0.00  0.00    +0.000 HD
ENDBRANCH  27  28
ENDBRANCH  24  27
ENDBRANCH  20  24
ENDBRANCH  11  17
BRANCH   1  39
ATOM     39  C   UNL     1      -9.239  -1.166  25.204  0.00  0.00    +0.000 C 
ATOM     40  H   UNL     1     -10.030  -1.820  25.585  0.00  0.00    +0.000 HD
ATOM     41  H   UNL     1      -9.617  -0.138  25.225  0.00  0.00    +0.000 HD
ATOM     42  H   UNL     1      -8.394  -1.222  25.901  0.00  0.00    +0.000 HD
ENDBRANCH   1  39
BRANCH   1  43
ATOM     43  C   UNL     1      -7.719  -0.589  23.315  0.00  0.00    +0.000 C 
ATOM     44  H   UNL     1      -6.857  -1.128  22.904  0.00  0.00    +0.000 HD
ATOM     45  H   UNL     1      -7.359   0.026  24.147  0.00  0.00    +0.000 HD
ATOM     46  H   UNL     1      -8.079   0.094  22.539  0.00  0.00    +0.000 HD
ENDBRANCH   1  43
BRANCH   9  47
ATOM     47  N   UNL     1     -11.869  -2.084  18.601  0.00  0.00    +0.000 N 
ATOM     48  H   UNL     1     -12.748  -2.499  18.899  0.00  0.00    +0.000 HD
ATOM     49  H   UNL     1     -11.734  -2.083  17.593  0.00  0.00    +0.000 HD
ENDBRANCH   9  47
BRANCH  10  50
ATOM     50  C   UNL     1      -9.970  -4.053  17.732  0.00  0.00    +0.000 C 
ATOM     51  N   UNL     1     -10.072  -4.613  16.721  0.00  0.00    +0.000 NA
ENDBRANCH  10  50
TORSDOF 8
ENDMDL
MODEL 2
REMARK VINA RESULT:    -9.655      3.141      5.254
REMARK INTER + INTRA:         -14.181
REMARK INTER:                 -13.152
REMARK INTRA:                  -1.029
REMARK UNBOUND:                -0.857
REMARK  Name = 
REMARK  8 active torsions:
REMARK  status: ('A' for Active; 'I' for Inactive)
REMARK    1  A    between atoms: C_1  and  C_2
REMARK    2  A    between atoms: C_2  and  C_3
REMARK    3  A    between atoms: C_11  and  N_12
REMARK    4  A    between atoms: C_13  and  C_14
REMARK    5  A    between atoms: C_16  and  C_17
REMARK    6  A    between atoms: C_20  and  C_21
REMARK    7  A    between atoms: C_21  and  O_22
REMARK    8  A    between atoms: O_22  and  C_23
REMARK                            x       y       z     vdW  Elec       q    Type
REMARK                         _______ _______ _______ _____ _____    ______ ____
ROOT
ATOM      1  C   UNL     1     -11.786  -1.196  15.680  0.00  0.00    +0.000 C 
ATOM      2  C   UNL     1     -11.290  -2.268  14.699  0.00  0.00    +0.000 C 
ATOM      3  C   UNL     1     -11.197  -3.619  15.389  0.00  0.00    +0.000 C 
ATOM      4  O   UNL     1     -11.641  -4.630  14.851  0.00  0.00    +0.000 OA
ATOM      5  C   UNL     1     -10.577  -3.665  16.745  0.00  0.00    +0.000 C 
ATOM      6  C   UNL     1     -10.403  -2.495  17.389  0.00  0.00    +0.000 C 
ATOM      7  C   UNL     1     -10.806  -1.141  16.867  0.00  0.00    +0.000 C 
ATOM      8  O   UNL     1      -9.888  -2.431  18.670  0.00  0.00    +0.000 OA
ATOM      9  C   UNL     1      -9.347  -3.555  19.271  0.00  0.00    +0.000 C 
ATOM     10  C   UNL     1      -9.464  -4.779  18.706  0.00  0.00    +0.000 C 
ATOM     11  C   UNL     1     -10.293  -4.986  17.435  0.00  0.00    +0.000 C 
ATOM     12  H   UNL     1     -10.298  -2.021  14.301  0.00  0.00    +0.000 HD
ATOM     13  H   UNL     1     -11.973  -2.355  13.847  0.00  0.00    +0.000 HD
ATOM     14  H   UNL     1      -9.888  -0.613  16.580  0.00  0.00    +0.000 HD
ATOM     15  H   UNL     1     -11.257  -0.558  17.681  0.00  0.00    +0.000 HD
ATOM     16  H   UNL     1     -11.285  -5.287  17.817  0.00  0.00    +0.000 HD
ENDROOT
BRANCH  11  17
ATOM     17  C   UNL     1      -9.880  -6.177  16.596  0.00  0.00    +0.000 A 
ATOM     18  C   UNL     1      -8.764  -6.359  15.793  0.00  0.00    +0.000 A 
ATOM     19  C   UNL     1      -8.832  -7.675  15.300  0.00  0.00    +0.000 A 
ATOM     20  C   UNL     1      -9.976  -8.234  15.831  0.00  0.00    +0.000 A 
ATOM     21  O   UNL     1     -10.642  -7.312  16.596  0.00  0.00    +0.000 OA
ATOM     22  H   UNL     1      -7.989  -5.632  15.607  0.00  0.00    +0.000 HD
ATOM     23  H   UNL     1      -8.120  -8.176  14.655  0.00  0.00    +0.000 HD
BRANCH  20  24
ATOM     24  C   UNL     1     -10.536  -9.608  15.741  0.00  0.00    +0.000 C 
ATOM     25  H   UNL     1     -11.297  -9.658  14.953  0.00  0.00    +0.000 HD
ATOM     26  H   UNL     1     -10.983  -9.870  16.708  0.00  0.00    +0.000 HD
BRANCH  24  27
ATOM     27  O   UNL     1      -9.446 -10.481  15.456  0.00  0.00    +0.000 OA
BRANCH  27  28
ATOM     28  C   UNL     1      -9.073 -11.369  16.427  0.00  0.00    +0.000 A 
ATOM     29  C   UNL     1      -8.872 -11.069  17.778  0.00  0.00    +0.000 A 
ATOM     30  C   UNL     1      -8.505 -12.083  18.671  0.00  0.00    +0.000 A 
ATOM     31  C   UNL     1      -8.335 -13.386  18.214  0.00  0.00    +0.000 A 
ATOM     32  F   UNL     1      -7.991 -14.350  19.077  0.00  0.00    +0.000 F 
ATOM     33  C   UNL     1      -8.516 -13.701  16.874  0.00  0.00    +0.000 A 
ATOM     34  C   UNL     1      -8.880 -12.688  15.994  0.00  0.00    +0.000 A 
ATOM     35  F   UNL     1      -9.052 -13.001  14.701  0.00  0.00    +0.000 F 
ATOM     36  H   UNL     1      -8.990 -10.064  18.170  0.00  0.00    +0.000 HD
ATOM     37  H   UNL     1      -8.349 -11.865  19.724  0.00  0.00    +0.000 HD
ATOM     38  H   UNL     1      -8.380 -14.715  16.520  0.00  0.00    +0.000 HD
ENDBRANCH  27  28
ENDBRANCH  24  27
ENDBRANCH  20  24
ENDBRANCH  11  17
BRANCH   1  39
ATOM     39  C   UNL     1     -11.823   0.181  14.995  0.00  0.00    +0.000 C 
ATOM     40  H   UNL     1     -11.461   0.122  13.964  0.00  0.00    +0.000 HD
ATOM     41  H   UNL     1     -11.199   0.909  15.527  0.00  0.00    +0.000 HD
ATOM     42  H   UNL     1     -12.845   0.578  14.969  0.00  0.00    +0.000 HD
ENDBRANCH   1  39
BRANCH   1  43
ATOM     43  C   UNL     1     -13.218  -1.527  16.156  0.00  0.00    +0.000 C 
ATOM     44  H   UNL     1     -13.547  -2.493  15.756  0.00  0.00    +0.000 HD
ATOM     45  H   UNL     1     -13.931  -0.767  15.819  0.00  0.00    +0.000 HD
ATOM     46  H   UNL     1     -13.295  -1.581  17.247  0.00  0.00    +0.000 HD
ENDBRANCH   1  43
BRANCH   9  47
ATOM     47  N   UNL     1      -8.740  -3.268  20.469  0.00  0.00    +0.000 N 
ATOM     48  H   UNL     1      -9.393  -2.919  21.167  0.00  0.00    +0.000 HD
ATOM     49  H   UNL     1      -7.869  -2.746  20.422  0.00  0.00    +0.000 HD
ENDBRANCH   9  47
BRANCH  10  50
ATOM     50  C   UNL     1      -8.875  -5.906  19.348  0.00  0.00    +0.000 C 
ATOM     51  N   UNL     1      -8.415  -6.816  19.903  0.00  0.00    +0.000 NA
ENDBRANCH  10  50
TORSDOF 8
ENDMDL
MODEL 3
REMARK VINA RESULT:    -9.640      2.079      3.329
REMARK INTER + INTRA:         -14.160
REMARK INTER:                 -13.533
REMARK INTRA:                  -0.627
REMARK UNBOUND:                -0.857
REMARK  Name = 
REMARK  8 active torsions:
REMARK  status: ('A' for Active; 'I' for Inactive)
REMARK    1  A    between atoms: C_1  and  C_2
REMARK    2  A    between atoms: C_2  and  C_3
REMARK    3  A    between atoms: C_11  and  N_12
REMARK    4  A    between atoms: C_13  and  C_14
REMARK    5  A    between atoms: C_16  and  C_17
REMARK    6  A    between atoms: C_20  and  C_21
REMARK    7  A    between atoms: C_21  and  O_22
REMARK    8  A    between atoms: O_22  and  C_23
REMARK                            x       y       z     vdW  Elec       q    Type
REMARK                         _______ _______ _______ _____ _____    ______ ____
ROOT
ATOM      1  C   UNL     1      -9.082  -0.705  23.693  0.00  0.00    +0.000 C 
ATOM      2  C   UNL     1      -9.956  -0.798  22.434  0.00  0.00    +0.000 C 
ATOM      3  C   UNL     1      -9.789  -2.154  21.768  0.00  0.00    +0.000 C 
ATOM      4  O   UNL     1     -10.769  -2.791  21.390  0.00  0.00    +0.000 OA
ATOM      5  C   UNL     1      -8.405  -2.689  21.619  0.00  0.00    +0.000 C 
ATOM      6  C   UNL     1      -7.428  -2.090  22.326  0.00  0.00    +0.000 C 
ATOM      7  C   UNL     1      -7.616  -0.939  23.278  0.00  0.00    +0.000 C 
ATOM      8  O   UNL     1      -6.121  -2.542  22.302  0.00  0.00    +0.000 OA
ATOM      9  C   UNL     1      -5.726  -3.511  21.396  0.00  0.00    +0.000 C 
ATOM     10  C   UNL     1      -6.628  -4.171  20.634  0.00  0.00    +0.000 C 
ATOM     11  C   UNL     1      -8.132  -3.952  20.822  0.00  0.00    +0.000 C 
ATOM     12  H   UNL     1      -9.690  -0.025  21.702  0.00  0.00    +0.000 HD
ATOM     13  H   UNL     1     -11.012  -0.659  22.689  0.00  0.00    +0.000 HD
ATOM     14  H   UNL     1      -7.210  -0.042  22.794  0.00  0.00    +0.000 HD
ATOM     15  H   UNL     1      -7.010  -1.108  24.178  0.00  0.00    +0.000 HD
ATOM     16  H   UNL     1      -8.428  -4.756  21.520  0.00  0.00    +0.000 HD
ENDROOT
BRANCH  11  17
ATOM     17  C   UNL     1      -8.973  -4.241  19.597  0.00  0.00    +0.000 A 
ATOM     18  C   UNL     1      -9.419  -3.388  18.599  0.00  0.00    +0.000 A 
ATOM     19  C   UNL     1     -10.098  -4.185  17.660  0.00  0.00    +0.000 A 
ATOM     20  C   UNL     1     -10.026  -5.483  18.122  0.00  0.00    +0.000 A 
ATOM     21  O   UNL     1      -9.371  -5.520  19.326  0.00  0.00    +0.000 OA
ATOM     22  H   UNL     1      -9.253  -2.323  18.552  0.00  0.00    +0.000 HD
ATOM     23  H   UNL     1     -10.564  -3.865  16.736  0.00  0.00    +0.000 HD
BRANCH  20  24
ATOM     24  C   UNL     1     -10.483  -6.768  17.532  0.00  0.00    +0.000 C 
ATOM     25  H   UNL     1     -10.631  -6.659  16.451  0.00  0.00    +0.000 HD
ATOM     26  H   UNL     1     -11.425  -7.061  18.010  0.00  0.00    +0.000 HD
BRANCH  24  27
ATOM     27  O   UNL     1      -9.474  -7.735  17.815  0.00  0.00    +0.000 OA
BRANCH  27  28
ATOM     28  C   UNL     1      -9.435  -8.859  17.038  0.00  0.00    +0.000 A 
ATOM     29  C   UNL     1      -9.722  -8.919  15.670  0.00  0.00    +0.000 A 
ATOM     30  C   UNL     1      -9.628 -10.140  14.992  0.00  0.00    +0.000 A 
ATOM     31  C   UNL     1      -9.255 -11.292  15.677  0.00  0.00    +0.000 A 
ATOM     32  F   UNL     1      -9.162 -12.453  15.017  0.00  0.00    +0.000 F 
ATOM     33  C   UNL     1      -8.981 -11.255  17.037  0.00  0.00    +0.000 A 
ATOM     34  C   UNL     1      -9.078 -10.039  17.704  0.00  0.00    +0.000 A 
ATOM     35  F   UNL     1      -8.812 -10.012  19.019  0.00  0.00    +0.000 F 
ATOM     36  H   UNL     1     -10.020  -8.044  15.104  0.00  0.00    +0.000 HD
ATOM     37  H   UNL     1      -9.844 -10.201  13.928  0.00  0.00    +0.000 HD
ATOM     38  H   UNL     1      -8.695 -12.153  17.569  0.00  0.00    +0.000 HD
ENDBRANCH  27  28
ENDBRANCH  24  27
ENDBRANCH  20  24
ENDBRANCH  11  17
BRANCH   1  39
ATOM     39  C   UNL     1      -9.207   0.688  24.331  0.00  0.00    +0.000 C 
ATOM     40  H   UNL     1      -9.018   0.651  25.409  0.00  0.00    +0.000 HD
ATOM     41  H   UNL     1     -10.207   1.109  24.181  0.00  0.00    +0.000 HD
ATOM     42  H   UNL     1      -8.485   1.387  23.891  0.00  0.00    +0.000 HD
ENDBRANCH   1  39
BRANCH   1  43
ATOM     43  C   UNL     1      -9.536  -1.748  24.739  0.00  0.00    +0.000 C 
ATOM     44  H   UNL     1      -8.947  -1.659  25.658  0.00  0.00    +0.000 HD
ATOM     45  H   UNL     1      -9.408  -2.768  24.360  0.00  0.00    +0.000 HD
ATOM     46  H   UNL     1     -10.590  -1.635  25.013  0.00  0.00    +0.000 HD
ENDBRANCH   1  43
BRANCH   9  47
ATOM     47  N   UNL     1      -4.368  -3.715  21.407  0.00  0.00    +0.000 N 
ATOM     48  H   UNL     1      -4.092  -4.496  21.997  0.00  0.00    +0.000 HD
ATOM     49  H   UNL     1      -3.786  -2.888  21.519  0.00  0.00    +0.000 HD
ENDBRANCH   9  47
BRANCH  10  50
ATOM     50  C   UNL     1      -6.176  -5.148  19.700  0.00  0.00    +0.000 C 
ATOM     51  N   UNL     1      -5.784  -5.916  18.925  0.00  0.00    +0.000 NA
ENDBRANCH  10  50
TORSDOF 8
ENDMDL
MODEL 4
REMARK VINA RESULT:    -9.633      1.150      1.444
REMARK INTER + INTRA:         -14.151
REMARK INTER:                 -13.558
REMARK INTRA:                  -0.593
REMARK UNBOUND:                -0.857
REMARK  Name = 
REMARK  8 active torsions:
REMARK  status: ('A' for Active; 'I' for Inactive)
REMARK    1  A    between atoms: C_1  and  C_2
REMARK    2  A    between atoms: C_2  and  C_3
REMARK    3  A    between atoms: C_11  and  N_12
REMARK    4  A    between atoms: C_13  and  C_14
REMARK    5  A    between atoms: C_16  and  C_17
REMARK    6  A    between atoms: C_20  and  C_21
REMARK    7  A    between atoms: C_21  and  O_22
REMARK    8  A    between atoms: O_22  and  C_23
REMARK                            x       y       z     vdW  Elec       q    Type
REMARK                         _______ _______ _______ _____ _____    ______ ____
ROOT
ATOM      1  C   UNL     1      -8.657  -1.764  23.645  0.00  0.00    +0.000 C 
ATOM      2  C   UNL     1      -8.403  -3.269  23.478  0.00  0.00    +0.000 C 
ATOM      3  C   UNL     1      -8.121  -3.604  22.022  0.00  0.00    +0.000 C 
ATOM      4  O   UNL     1      -7.183  -4.336  21.718  0.00  0.00    +0.000 OA
ATOM      5  C   UNL     1      -9.002  -2.992  20.986  0.00  0.00    +0.000 C 
ATOM      6  C   UNL     1      -9.795  -1.972  21.368  0.00  0.00    +0.000 C 
ATOM      7  C   UNL     1      -9.850  -1.377  22.750  0.00  0.00    +0.000 C 
ATOM      8  O   UNL     1     -10.608  -1.299  20.475  0.00  0.00    +0.000 OA
ATOM      9  C   UNL     1     -10.786  -1.775  19.186  0.00  0.00    +0.000 C 
ATOM     10  C   UNL     1     -10.043  -2.797  18.705  0.00  0.00    +0.000 C 
ATOM     11  C   UNL     1      -8.899  -3.398  19.527  0.00  0.00    +0.000 C 
ATOM     12  H   UNL     1      -9.268  -3.862  23.801  0.00  0.00    +0.000 HD
ATOM     13  H   UNL     1      -7.545  -3.583  24.083  0.00  0.00    +0.000 HD
ATOM     14  H   UNL     1     -10.793  -1.701  23.210  0.00  0.00    +0.000 HD
ATOM     15  H   UNL     1      -9.903  -0.283  22.673  0.00  0.00    +0.000 HD
ATOM     16  H   UNL     1      -8.008  -2.846  19.177  0.00  0.00    +0.000 HD
ENDROOT
BRANCH  11  17
ATOM     17  C   UNL     1      -8.561  -4.834  19.189  0.00  0.00    +0.000 A 
ATOM     18  C   UNL     1      -7.337  -5.420  18.905  0.00  0.00    +0.000 A 
ATOM     19  C   UNL     1      -7.578  -6.796  18.736  0.00  0.00    +0.000 A 
ATOM     20  C   UNL     1      -8.931  -6.985  18.933  0.00  0.00    +0.000 A 
ATOM     21  O   UNL     1      -9.545  -5.783  19.175  0.00  0.00    +0.000 OA
ATOM     22  H   UNL     1      -6.387  -4.913  18.848  0.00  0.00    +0.000 HD
ATOM     23  H   UNL     1      -6.852  -7.572  18.523  0.00  0.00    +0.000 HD
BRANCH  20  24
ATOM     24  C   UNL     1      -9.761  -8.217  18.965  0.00  0.00    +0.000 C 
ATOM     25  H   UNL     1     -10.468  -8.221  18.127  0.00  0.00    +0.000 HD
ATOM     26  H   UNL     1     -10.308  -8.249  19.915  0.00  0.00    +0.000 HD
BRANCH  24  27
ATOM     27  O   UNL     1      -8.864  -9.322  18.884  0.00  0.00    +0.000 OA
BRANCH  27  28
ATOM     28  C   UNL     1      -8.944 -10.126  17.780  0.00  0.00    +0.000 A 
ATOM     29  C   UNL     1      -9.398  -9.737  16.516  0.00  0.00    +0.000 A 
ATOM     30  C   UNL     1      -9.414 -10.664  15.466  0.00  0.00    +0.000 A 
ATOM     31  C   UNL     1      -8.984 -11.969  15.681  0.00  0.00    +0.000 A 
ATOM     32  F   UNL     1      -8.996 -12.844  14.668  0.00  0.00    +0.000 F 
ATOM     33  C   UNL     1      -8.544 -12.377  16.933  0.00  0.00    +0.000 A 
ATOM     34  C   UNL     1      -8.532 -11.452  17.970  0.00  0.00    +0.000 A 
ATOM     35  F   UNL     1      -8.106 -11.855  19.177  0.00  0.00    +0.000 F 
ATOM     36  H   UNL     1      -9.746  -8.730  16.312  0.00  0.00    +0.000 HD
ATOM     37  H   UNL     1      -9.760 -10.374  14.477  0.00  0.00    +0.000 HD
ATOM     38  H   UNL     1      -8.213 -13.394  17.099  0.00  0.00    +0.000 HD
ENDBRANCH  27  28
ENDBRANCH  24  27
ENDBRANCH  20  24
ENDBRANCH  11  17
BRANCH   1  39
ATOM     39  C   UNL     1      -9.001  -1.438  25.108  0.00  0.00    +0.000 C 
ATOM     40  H   UNL     1      -9.867  -2.013  25.451  0.00  0.00    +0.000 HD
ATOM     41  H   UNL     1      -9.233  -0.375  25.237  0.00  0.00    +0.000 HD
ATOM     42  H   UNL     1      -8.159  -1.675  25.770  0.00  0.00    +0.000 HD
ENDBRANCH   1  39
BRANCH   1  43
ATOM     43  C   UNL     1      -7.393  -0.962  23.264  0.00  0.00    +0.000 C 
ATOM     44  H   UNL     1      -6.722  -1.566  22.643  0.00  0.00    +0.000 HD
ATOM     45  H   UNL     1      -6.836  -0.657  24.156  0.00  0.00    +0.000 HD
ATOM     46  H   UNL     1      -7.628  -0.051  22.703  0.00  0.00    +0.000 HD
ENDBRANCH   1  43
BRANCH   9  47
ATOM     47  N   UNL     1     -11.749  -1.076  18.499  0.00  0.00    +0.000 N 
ATOM     48  H   UNL     1     -12.491  -1.675  18.146  0.00  0.00    +0.000 HD
ATOM     49  H   UNL     1     -11.417  -0.389  17.827  0.00  0.00    +0.000 HD
ENDBRANCH   9  47
BRANCH  10  50
ATOM     50  C   UNL     1     -10.273  -3.268  17.380  0.00  0.00    +0.000 C 
ATOM     51  N   UNL     1     -10.492  -3.630  16.300  0.00  0.00    +0.000 NA
ENDBRANCH  10  50
TORSDOF 8
ENDMDL
MODEL 5
REMARK VINA RESULT:    -9.292      3.103      7.196
REMARK INTER + INTRA:         -13.680
REMARK INTER:                 -12.254
REMARK INTRA:                  -1.426
REMARK UNBOUND:                -0.857
REMARK  Name = 
REMARK  8 active torsions:
REMARK  status: ('A' for Active; 'I' for Inactive)
REMARK    1  A    between atoms: C_1  and  C_2
REMARK    2  A    between atoms: C_2  and  C_3
REMARK    3  A    between atoms: C_11  and  N_12
REMARK    4  A    between atoms: C_13  and  C_14
REMARK    5  A    between atoms: C_16  and  C_17
REMARK    6  A    between atoms: C_20  and  C_21
REMARK    7  A    between atoms: C_21  and  O_22
REMARK    8  A    between atoms: O_22  and  C_23
REMARK                            x       y       z     vdW  Elec       q    Type
REMARK                         _______ _______ _______ _____ _____    ______ ____
ROOT
ATOM      1  C   UNL     1      -9.621  -8.795  16.579  0.00  0.00    +0.000 C 
ATOM      2  C   UNL     1      -9.523  -8.063  17.925  0.00  0.00    +0.000 C 
ATOM      3  C   UNL     1     -10.285  -6.749  17.874  0.00  0.00    +0.000 C 
ATOM      4  O   UNL     1     -11.041  -6.427  18.788  0.00  0.00    +0.000 OA
ATOM      5  C   UNL     1     -10.105  -5.888  16.670  0.00  0.00    +0.000 C 
ATOM      6  C   UNL     1      -9.519  -6.442  15.592  0.00  0.00    +0.000 C 
ATOM      7  C   UNL     1      -9.051  -7.869  15.487  0.00  0.00    +0.000 C 
ATOM      8  O   UNL     1      -9.353  -5.749  14.407  0.00  0.00    +0.000 OA
ATOM      9  C   UNL     1      -9.609  -4.389  14.344  0.00  0.00    +0.000 C 
ATOM     10  C   UNL     1     -10.192  -3.735  15.374  0.00  0.00    +0.000 C 
ATOM     11  C   UNL     1     -10.694  -4.491  16.607  0.00  0.00    +0.000 C 
ATOM     12  H   UNL     1      -8.480  -7.841  18.187  0.00  0.00    +0.000 HD
ATOM     13  H   UNL     1      -9.939  -8.680  18.729  0.00  0.00    +0.000 HD
ATOM     14  H   UNL     1      -7.955  -7.861  15.529  0.00  0.00    +0.000 HD
ATOM     15  H   UNL     1      -9.320  -8.269  14.500  0.00  0.00    +0.000 HD
ATOM     16  H   UNL     1     -11.759  -4.679  16.382  0.00  0.00    +0.000 HD
ENDROOT
BRANCH  11  17
ATOM     17  C   UNL     1     -10.757  -3.665  17.875  0.00  0.00    +0.000 A 
ATOM     18  C   UNL     1     -11.854  -3.233  18.605  0.00  0.00    +0.000 A 
ATOM     19  C   UNL     1     -11.349  -2.565  19.735  0.00  0.00    +0.000 A 
ATOM     20  C   UNL     1      -9.973  -2.630  19.647  0.00  0.00    +0.000 A 
ATOM     21  O   UNL     1      -9.604  -3.270  18.492  0.00  0.00    +0.000 OA
ATOM     22  H   UNL     1     -12.890  -3.401  18.355  0.00  0.00    +0.000 HD
ATOM     23  H   UNL     1     -11.913  -2.111  20.541  0.00  0.00    +0.000 HD
BRANCH  20  24
ATOM     24  C   UNL     1      -8.902  -2.180  20.574  0.00  0.00    +0.000 C 
ATOM     25  H   UNL     1      -9.264  -1.357  21.203  0.00  0.00    +0.000 HD
ATOM     26  H   UNL     1      -8.041  -1.846  19.983  0.00  0.00    +0.000 HD
BRANCH  24  27
ATOM     27  O   UNL     1      -8.540  -3.309  21.365  0.00  0.00    +0.000 OA
BRANCH  27  28
ATOM     28  C   UNL     1      -7.467  -4.053  20.957  0.00  0.00    +0.000 A 
ATOM     29  C   UNL     1      -7.523  -5.202  20.161  0.00  0.00    +0.000 A 
ATOM     30  C   UNL     1      -6.341  -5.860  19.804  0.00  0.00    +0.000 A 
ATOM     31  C   UNL     1      -5.113  -5.376  20.243  0.00  0.00    +0.000 A 
ATOM     32  F   UNL     1      -3.988  -6.009  19.889  0.00  0.00    +0.000 F 
ATOM     33  C   UNL     1      -5.038  -4.246  21.045  0.00  0.00    +0.000 A 
ATOM     34  C   UNL     1      -6.217  -3.598  21.397  0.00  0.00    +0.000 A 
ATOM     35  F   UNL     1      -6.136  -2.507  22.173  0.00  0.00    +0.000 F 
ATOM     36  H   UNL     1      -8.462  -5.612  19.805  0.00  0.00    +0.000 HD
ATOM     37  H   UNL     1      -6.369  -6.752  19.183  0.00  0.00    +0.000 HD
ATOM     38  H   UNL     1      -4.082  -3.873  21.389  0.00  0.00    +0.000 HD
ENDBRANCH  27  28
ENDBRANCH  24  27
ENDBRANCH  20  24
ENDBRANCH  11  17
BRANCH   1  39
ATOM     39  C   UNL     1      -8.799 -10.095  16.614  0.00  0.00    +0.000 C 
ATOM     40  H   UNL     1      -7.895  -9.977  17.220  0.00  0.00    +0.000 HD
ATOM     41  H   UNL     1      -8.490 -10.401  15.608  0.00  0.00    +0.000 HD
ATOM     42  H   UNL     1      -9.385 -10.916  17.044  0.00  0.00    +0.000 HD
ENDBRANCH   1  39
BRANCH   1  43
ATOM     43  C   UNL     1     -11.089  -9.170  16.279  0.00  0.00    +0.000 C 
ATOM     44  H   UNL     1     -11.740  -8.891  17.115  0.00  0.00    +0.000 HD
ATOM     45  H   UNL     1     -11.196 -10.249  16.121  0.00  0.00    +0.000 HD
ATOM     46  H   UNL     1     -11.474  -8.673  15.383  0.00  0.00    +0.000 HD
ENDBRANCH   1  43
BRANCH   9  47
ATOM     47  N   UNL     1      -9.234  -3.841  13.141  0.00  0.00    +0.000 N 
ATOM     48  H   UNL     1      -9.684  -4.292  12.347  0.00  0.00    +0.000 HD
ATOM     49  H   UNL     1      -8.241  -3.672  13.010  0.00  0.00    +0.000 HD
ENDBRANCH   9  47
BRANCH  10  50
ATOM     50  C   UNL     1     -10.419  -2.331  15.274  0.00  0.00    +0.000 C 
ATOM     51  N   UNL     1     -10.566  -1.183  15.203  0.00  0.00    +0.000 NA
ENDBRANCH  10  50
TORSDOF 8
ENDMDL
MODEL 6
REMARK VINA RESULT:    -9.267      4.814      9.275
REMARK INTER + INTRA:         -13.645
REMARK INTER:                 -12.772
REMARK INTRA:                  -0.873
REMARK UNBOUND:                -0.857
REMARK  Name = 
REMARK  8 active torsions:
REMARK  status: ('A' for Active; 'I' for Inactive)
REMARK    1  A    between atoms: C_1  and  C_2
REMARK    2  A    between atoms: C_2  and  C_3
REMARK    3  A    between atoms: C_11  and  N_12
REMARK    4  A    between atoms: C_13  and  C_14
REMARK    5  A    between atoms: C_16  and  C_17
REMARK    6  A    between atoms: C_20  and  C_21
REMARK    7  A    between atoms: C_21  and  O_22
REMARK    8  A    between atoms: O_22  and  C_23
REMARK                            x       y       z     vdW  Elec       q    Type
REMARK                         _______ _______ _______ _____ _____    ______ ____
ROOT
ATOM      1  C   UNL     1      -8.658 -12.550  15.499  0.00  0.00    +0.000 C 
ATOM      2  C   UNL     1      -9.606 -11.557  14.812  0.00  0.00    +0.000 C 
ATOM      3  C   UNL     1      -9.284 -10.133  15.234  0.00  0.00    +0.000 C 
ATOM      4  O   UNL     1      -9.206  -9.234  14.400  0.00  0.00    +0.000 OA
ATOM      5  C   UNL     1      -9.040  -9.876  16.683  0.00  0.00    +0.000 C 
ATOM      6  C   UNL     1      -8.837 -10.945  17.477  0.00  0.00    +0.000 C 
ATOM      7  C   UNL     1      -8.808 -12.380  17.023  0.00  0.00    +0.000 C 
ATOM      8  O   UNL     1      -8.548 -10.816  18.823  0.00  0.00    +0.000 OA
ATOM      9  C   UNL     1      -8.648  -9.586  19.452  0.00  0.00    +0.000 C 
ATOM     10  C   UNL     1      -8.855  -8.451  18.747  0.00  0.00    +0.000 C 
ATOM     11  C   UNL     1      -8.875  -8.465  17.215  0.00  0.00    +0.000 C 
ATOM     12  H   UNL     1     -10.654 -11.758  15.068  0.00  0.00    +0.000 HD
ATOM     13  H   UNL     1      -9.515 -11.629  13.723  0.00  0.00    +0.000 HD
ATOM     14  H   UNL     1      -9.735 -12.854  17.370  0.00  0.00    +0.000 HD
ATOM     15  H   UNL     1      -7.985 -12.904  17.527  0.00  0.00    +0.000 HD
ATOM     16  H   UNL     1      -7.836  -8.213  16.938  0.00  0.00    +0.000 HD
ENDROOT
BRANCH  11  17
ATOM     17  C   UNL     1      -9.674  -7.346  16.581  0.00  0.00    +0.000 A 
ATOM     18  C   UNL     1     -11.012  -7.013  16.725  0.00  0.00    +0.000 A 
ATOM     19  C   UNL     1     -11.220  -5.842  15.972  0.00  0.00    +0.000 A 
ATOM     20  C   UNL     1     -10.001  -5.513  15.414  0.00  0.00    +0.000 A 
ATOM     21  O   UNL     1      -9.058  -6.449  15.754  0.00  0.00    +0.000 OA
ATOM     22  H   UNL     1     -11.739  -7.543  17.319  0.00  0.00    +0.000 HD
ATOM     23  H   UNL     1     -12.140  -5.281  15.865  0.00  0.00    +0.000 HD
BRANCH  20  24
ATOM     24  C   UNL     1      -9.573  -4.351  14.593  0.00  0.00    +0.000 C 
ATOM     25  H   UNL     1      -8.488  -4.373  14.439  0.00  0.00    +0.000 HD
ATOM     26  H   UNL     1      -9.857  -3.428  15.113  0.00  0.00    +0.000 HD
BRANCH  24  27
ATOM     27  O   UNL     1     -10.269  -4.443  13.353  0.00  0.00    +0.000 OA
BRANCH  27  28
ATOM     28  C   UNL     1     -11.217  -3.494  13.084  0.00  0.00    +0.000 A 
ATOM     29  C   UNL     1     -11.609  -2.462  13.943  0.00  0.00    +0.000 A 
ATOM     30  C   UNL     1     -12.585  -1.547  13.532  0.00  0.00    +0.000 A 
ATOM     31  C   UNL     1     -13.167  -1.665  12.274  0.00  0.00    +0.000 A 
ATOM     32  F   UNL     1     -14.095  -0.780  11.889  0.00  0.00    +0.000 F 
ATOM     33  C   UNL     1     -12.801  -2.690  11.413  0.00  0.00    +0.000 A 
ATOM     34  C   UNL     1     -11.832  -3.596  11.829  0.00  0.00    +0.000 A 
ATOM     35  F   UNL     1     -11.484  -4.585  10.991  0.00  0.00    +0.000 F 
ATOM     36  H   UNL     1     -11.182  -2.342  14.933  0.00  0.00    +0.000 HD
ATOM     37  H   UNL     1     -12.897  -0.738  14.188  0.00  0.00    +0.000 HD
ATOM     38  H   UNL     1     -13.258  -2.783  10.436  0.00  0.00    +0.000 HD
ENDBRANCH  27  28
ENDBRANCH  24  27
ENDBRANCH  20  24
ENDBRANCH  11  17
BRANCH   1  39
ATOM     39  C   UNL     1      -9.025 -13.994  15.117  0.00  0.00    +0.000 C 
ATOM     40  H   UNL     1      -8.404 -14.356  14.291  0.00  0.00    +0.000 HD
ATOM     41  H   UNL     1     -10.073 -14.071  14.805  0.00  0.00    +0.000 HD
ATOM     42  H   UNL     1      -8.881 -14.672  15.966  0.00  0.00    +0.000 HD
ENDBRANCH   1  39
BRANCH   1  43
ATOM     43  C   UNL     1      -7.201 -12.297  15.053  0.00  0.00    +0.000 C 
ATOM     44  H   UNL     1      -6.653 -11.731  15.815  0.00  0.00    +0.000 HD
ATOM     45  H   UNL     1      -7.169 -11.718  14.123  0.00  0.00    +0.000 HD
ATOM     46  H   UNL     1      -6.650 -13.226  14.875  0.00  0.00    +0.000 HD
ENDBRANCH   1  43
BRANCH   9  47
ATOM     47  N   UNL     1      -8.486  -9.679  20.813  0.00  0.00    +0.000 N 
ATOM     48  H   UNL     1      -7.513  -9.599  21.098  0.00  0.00    +0.000 HD
ATOM     49  H   UNL     1      -8.993 -10.426  21.280  0.00  0.00    +0.000 HD
ENDBRANCH   9  47
BRANCH  10  50
ATOM     50  C   UNL     1      -8.973  -7.208  19.435  0.00  0.00    +0.000 C 
ATOM     51  N   UNL     1      -9.035  -6.187  19.981  0.00  0.00    +0.000 NA
ENDBRANCH  10  50
TORSDOF 8
ENDMDL
MODEL 7
REMARK VINA RESULT:    -9.202      2.576      4.677
REMARK INTER + INTRA:         -13.556
REMARK INTER:                 -12.868
REMARK INTRA:                  -0.688
REMARK UNBOUND:                -0.857
REMARK  Name = 
REMARK  8 active torsions:
REMARK  status: ('A' for Active; 'I' for Inactive)
REMARK    1  A    between atoms: C_1  and  C_2
REMARK    2  A    between atoms: C_2  and  C_3
REMARK    3  A    between atoms: C_11  and  N_12
REMARK    4  A    between atoms: C_13  and  C_14
REMARK    5  A    between atoms: C_16  and  C_17
REMARK    6  A    between atoms: C_20  and  C_21
REMARK    7  A    between atoms: C_21  and  O_22
REMARK    8  A    between atoms: O_22  and  C_23
REMARK                            x       y       z     vdW  Elec       q    Type
REMARK                         _______ _______ _______ _____ _____    ______ ____
ROOT
ATOM      1  C   UNL     1     -11.555  -1.343  15.532  0.00  0.00    +0.000 C 
ATOM      2  C   UNL     1     -10.898  -2.681  15.166  0.00  0.00    +0.000 C 
ATOM      3  C   UNL     1     -10.720  -3.544  16.405  0.00  0.00    +0.000 C 
ATOM      4  O   UNL     1     -11.031  -4.733  16.391  0.00  0.00    +0.000 OA
ATOM      5  C   UNL     1     -10.187  -2.892  17.636  0.00  0.00    +0.000 C 
ATOM      6  C   UNL     1     -10.168  -1.545  17.666  0.00  0.00    +0.000 C 
ATOM      7  C   UNL     1     -10.663  -0.638  16.572  0.00  0.00    +0.000 C 
ATOM      8  O   UNL     1      -9.745  -0.841  18.778  0.00  0.00    +0.000 OA
ATOM      9  C   UNL     1      -9.140  -1.495  19.839  0.00  0.00    +0.000 C 
ATOM     10  C   UNL     1      -9.102  -2.845  19.904  0.00  0.00    +0.000 C 
ATOM     11  C   UNL     1      -9.825  -3.706  18.863  0.00  0.00    +0.000 C 
ATOM     12  H   UNL     1      -9.909  -2.533  14.712  0.00  0.00    +0.000 HD
ATOM     13  H   UNL     1     -11.513  -3.227  14.443  0.00  0.00    +0.000 HD
ATOM     14  H   UNL     1      -9.783  -0.200  16.084  0.00  0.00    +0.000 HD
ATOM     15  H   UNL     1     -11.219   0.198  17.016  0.00  0.00    +0.000 HD
ATOM     16  H   UNL     1     -10.806  -3.909  19.328  0.00  0.00    +0.000 HD
ENDROOT
BRANCH  11  17
ATOM     17  C   UNL     1      -9.247  -5.093  18.677  0.00  0.00    +0.000 A 
ATOM     18  C   UNL     1      -7.943  -5.490  18.422  0.00  0.00    +0.000 A 
ATOM     19  C   UNL     1      -7.943  -6.897  18.415  0.00  0.00    +0.000 A 
ATOM     20  C   UNL     1      -9.240  -7.291  18.675  0.00  0.00    +0.000 A 
ATOM     21  O   UNL     1     -10.051  -6.192  18.800  0.00  0.00    +0.000 OA
ATOM     22  H   UNL     1      -7.096  -4.838  18.279  0.00  0.00    +0.000 HD
ATOM     23  H   UNL     1      -7.097  -7.557  18.267  0.00  0.00    +0.000 HD
BRANCH  20  24
ATOM     24  C   UNL     1      -9.843  -8.635  18.870  0.00  0.00    +0.000 C 
ATOM     25  H   UNL     1     -10.631  -8.810  18.128  0.00  0.00    +0.000 HD
ATOM     26  H   UNL     1     -10.266  -8.688  19.881  0.00  0.00    +0.000 HD
BRANCH  24  27
ATOM     27  O   UNL     1      -8.789  -9.584  18.734  0.00  0.00    +0.000 OA
BRANCH  27  28
ATOM     28  C   UNL     1      -8.832 -10.431  17.660  0.00  0.00    +0.000 A 
ATOM     29  C   UNL     1      -9.193 -10.080  16.355  0.00  0.00    +0.000 A 
ATOM     30  C   UNL     1      -9.178 -11.048  15.344  0.00  0.00    +0.000 A 
ATOM     31  C   UNL     1      -8.810 -12.357  15.638  0.00  0.00    +0.000 A 
ATOM     32  F   UNL     1      -8.792 -13.273  14.661  0.00  0.00    +0.000 F 
ATOM     33  C   UNL     1      -8.462 -12.727  16.929  0.00  0.00    +0.000 A 
ATOM     34  C   UNL     1      -8.480 -11.761  17.928  0.00  0.00    +0.000 A 
ATOM     35  F   UNL     1      -8.143 -12.127  19.174  0.00  0.00    +0.000 F 
ATOM     36  H   UNL     1      -9.491  -9.071  16.090  0.00  0.00    +0.000 HD
ATOM     37  H   UNL     1      -9.453 -10.789  14.325  0.00  0.00    +0.000 HD
ATOM     38  H   UNL     1      -8.178 -13.747  17.156  0.00  0.00    +0.000 HD
ENDBRANCH  27  28
ENDBRANCH  24  27
ENDBRANCH  20  24
ENDBRANCH  11  17
BRANCH   1  39
ATOM     39  C   UNL     1     -11.678  -0.449  14.287  0.00  0.00    +0.000 C 
ATOM     40  H   UNL     1     -11.216  -0.918  13.412  0.00  0.00    +0.000 HD
ATOM     41  H   UNL     1     -11.192   0.521  14.441  0.00  0.00    +0.000 HD
ATOM     42  H   UNL     1     -12.731  -0.257  14.045  0.00  0.00    +0.000 HD
ENDBRANCH   1  39
BRANCH   1  43
ATOM     43  C   UNL     1     -12.977  -1.579  16.088  0.00  0.00    +0.000 C 
ATOM     44  H   UNL     1     -13.436  -2.458  15.622  0.00  0.00    +0.000 HD
ATOM     45  H   UNL     1     -13.626  -0.720  15.889  0.00  0.00    +0.000 HD
ATOM     46  H   UNL     1     -12.981  -1.743  17.171  0.00  0.00    +0.000 HD
ENDBRANCH   1  43
BRANCH   9  47
ATOM     47  N   UNL     1      -8.641  -0.622  20.775  0.00  0.00    +0.000 N 
ATOM     48  H   UNL     1      -8.947  -0.842  21.720  0.00  0.00    +0.000 HD
ATOM     49  H   UNL     1      -8.691   0.367  20.545  0.00  0.00    +0.000 HD
ENDBRANCH   9  47
BRANCH  10  50
ATOM     50  C   UNL     1      -8.451  -3.477  21.003  0.00  0.00    +0.000 C 
ATOM     51  N   UNL     1      -7.895  -3.963  21.898  0.00  0.00    +0.000 NA
ENDBRANCH  10  50
TORSDOF 8
ENDMDL
MODEL 8
REMARK VINA RESULT:    -8.946      3.397      6.093
REMARK INTER + INTRA:         -13.202
REMARK INTER:                 -12.243
REMARK INTRA:                  -0.960
REMARK UNBOUND:                -0.857
REMARK  Name = 
REMARK  8 active torsions:
REMARK  status: ('A' for Active; 'I' for Inactive)
REMARK    1  A    between atoms: C_1  and  C_2
REMARK    2  A    between atoms: C_2  and  C_3
REMARK    3  A    between atoms: C_11  and  N_12
REMARK    4  A    between atoms: C_13  and  C_14
REMARK    5  A    between atoms: C_16  and  C_17
REMARK    6  A    between atoms: C_20  and  C_21
REMARK    7  A    between atoms: C_21  and  O_22
REMARK    8  A    between atoms: O_22  and  C_23
REMARK                            x       y       z     vdW  Elec       q    Type
REMARK                         _______ _______ _______ _____ _____    ______ ____
ROOT
ATOM      1  C   UNL     1     -11.227  -2.508  12.510  0.00  0.00    +0.000 C 
ATOM      2  C   UNL     1     -10.943  -3.962  12.912  0.00  0.00    +0.000 C 
ATOM      3  C   UNL     1     -11.202  -4.165  14.396  0.00  0.00    +0.000 C 
ATOM      4  O   UNL     1     -11.839  -5.137  14.794  0.00  0.00    +0.000 OA
ATOM      5  C   UNL     1     -10.682  -3.134  15.340  0.00  0.00    +0.000 C 
ATOM      6  C   UNL     1     -10.275  -1.961  14.816  0.00  0.00    +0.000 C 
ATOM      7  C   UNL     1     -10.325  -1.591  13.357  0.00  0.00    +0.000 C 
ATOM      8  O   UNL     1      -9.828  -0.919  15.606  0.00  0.00    +0.000 OA
ATOM      9  C   UNL     1      -9.596  -1.107  16.958  0.00  0.00    +0.000 C 
ATOM     10  C   UNL     1      -9.962  -2.250  17.582  0.00  0.00    +0.000 C 
ATOM     11  C   UNL     1     -10.749  -3.337  16.842  0.00  0.00    +0.000 C 
ATOM     12  H   UNL     1      -9.901  -4.240  12.709  0.00  0.00    +0.000 HD
ATOM     13  H   UNL     1     -11.582  -4.650  12.347  0.00  0.00    +0.000 HD
ATOM     14  H   UNL     1      -9.296  -1.612  12.977  0.00  0.00    +0.000 HD
ATOM     15  H   UNL     1     -10.671  -0.553  13.257  0.00  0.00    +0.000 HD
ATOM     16  H   UNL     1     -11.802  -3.103  17.079  0.00  0.00    +0.000 HD
ENDROOT
BRANCH  11  17
ATOM     17  C   UNL     1     -10.580  -4.734  17.400  0.00  0.00    +0.000 A 
ATOM     18  C   UNL     1     -11.406  -5.466  18.239  0.00  0.00    +0.000 A 
ATOM     19  C   UNL     1     -10.812  -6.732  18.386  0.00  0.00    +0.000 A 
ATOM     20  C   UNL     1      -9.660  -6.716  17.626  0.00  0.00    +0.000 A 
ATOM     21  O   UNL     1      -9.492  -5.483  17.049  0.00  0.00    +0.000 OA
ATOM     22  H   UNL     1     -12.334  -5.127  18.671  0.00  0.00    +0.000 HD
ATOM     23  H   UNL     1     -11.186  -7.575  18.955  0.00  0.00    +0.000 HD
BRANCH  20  24
ATOM     24  C   UNL     1      -8.663  -7.775  17.323  0.00  0.00    +0.000 C 
ATOM     25  H   UNL     1      -7.704  -7.544  17.803  0.00  0.00    +0.000 HD
ATOM     26  H   UNL     1      -8.531  -7.834  16.236  0.00  0.00    +0.000 HD
BRANCH  24  27
ATOM     27  O   UNL     1      -9.199  -9.001  17.814  0.00  0.00    +0.000 OA
BRANCH  27  28
ATOM     28  C   UNL     1      -9.056 -10.115  17.033  0.00  0.00    +0.000 A 
ATOM     29  C   UNL     1      -9.282 -10.183  15.654  0.00  0.00    +0.000 A 
ATOM     30  C   UNL     1      -9.082 -11.390  14.974  0.00  0.00    +0.000 A 
ATOM     31  C   UNL     1      -8.664 -12.521  15.669  0.00  0.00    +0.000 A 
ATOM     32  F   UNL     1      -8.469 -13.668  15.007  0.00  0.00    +0.000 F 
ATOM     33  C   UNL     1      -8.449 -12.477  17.039  0.00  0.00    +0.000 A 
ATOM     34  C   UNL     1      -8.651 -11.275  17.708  0.00  0.00    +0.000 A 
ATOM     35  F   UNL     1      -8.441 -11.241  19.032  0.00  0.00    +0.000 F 
ATOM     36  H   UNL     1      -9.613  -9.324  15.081  0.00  0.00    +0.000 HD
ATOM     37  H   UNL     1      -9.249 -11.457  13.902  0.00  0.00    +0.000 HD
ATOM     38  H   UNL     1      -8.127 -13.359  17.578  0.00  0.00    +0.000 HD
ENDBRANCH  27  28
ENDBRANCH  24  27
ENDBRANCH  20  24
ENDBRANCH  11  17
BRANCH   1  39
ATOM     39  C   UNL     1     -10.907  -2.292  11.022  0.00  0.00    +0.000 C 
ATOM     40  H   UNL     1      -9.892  -1.904  10.885  0.00  0.00    +0.000 HD
ATOM     41  H   UNL     1     -11.602  -1.579  10.562  0.00  0.00    +0.000 HD
ATOM     42  H   UNL     1     -10.983  -3.233  10.464  0.00  0.00    +0.000 HD
ENDBRANCH   1  39
BRANCH   1  43
ATOM     43  C   UNL     1     -12.720  -2.175  12.728  0.00  0.00    +0.000 C 
ATOM     44  H   UNL     1     -13.269  -2.212  11.779  0.00  0.00    +0.000 HD
ATOM     45  H   UNL     1     -12.843  -1.169  13.143  0.00  0.00    +0.000 HD
ATOM     46  H   UNL     1     -13.209  -2.871  13.417  0.00  0.00    +0.000 HD
ENDBRANCH   1  43
BRANCH   9  47
ATOM     47  N   UNL     1      -9.002  -0.016  17.545  0.00  0.00    +0.000 N 
ATOM     48  H   UNL     1      -8.189   0.312  17.030  0.00  0.00    +0.000 HD
ATOM     49  H   UNL     1      -8.862  -0.063  18.550  0.00  0.00    +0.000 HD
ENDBRANCH   9  47
BRANCH  10  50
ATOM     50  C   UNL     1      -9.686  -2.411  18.971  0.00  0.00    +0.000 C 
ATOM     51  N   UNL     1      -9.425  -2.551  20.092  0.00  0.00    +0.000 NA
ENDBRANCH  10  50
TORSDOF 8
ENDMDL
MODEL 9
REMARK VINA RESULT:    -8.918      2.306      3.448
REMARK INTER + INTRA:         -13.164
REMARK INTER:                 -12.282
REMARK INTRA:                  -0.881
REMARK UNBOUND:                -0.857
REMARK  Name = 
REMARK  8 active torsions:
REMARK  status: ('A' for Active; 'I' for Inactive)
REMARK    1  A    between atoms: C_1  and  C_2
REMARK    2  A    between atoms: C_2  and  C_3
REMARK    3  A    between atoms: C_11  and  N_12
REMARK    4  A    between atoms: C_13  and  C_14
REMARK    5  A    between atoms: C_16  and  C_17
REMARK    6  A    between atoms: C_20  and  C_21
REMARK    7  A    between atoms: C_21  and  O_22
REMARK    8  A    between atoms: O_22  and  C_23
REMARK                            x       y       z     vdW  Elec       q    Type
REMARK                         _______ _______ _______ _____ _____    ______ ____
ROOT
ATOM      1  C   UNL     1     -10.711  -0.262  21.443  0.00  0.00    +0.000 C 
ATOM      2  C   UNL     1     -11.196  -0.687  20.050  0.00  0.00    +0.000 C 
ATOM      3  C   UNL     1     -10.970  -2.175  19.838  0.00  0.00    +0.000 C 
ATOM      4  O   UNL     1     -11.856  -2.882  19.363  0.00  0.00    +0.000 OA
ATOM      5  C   UNL     1      -9.655  -2.744  20.251  0.00  0.00    +0.000 C 
ATOM      6  C   UNL     1      -8.869  -1.984  21.037  0.00  0.00    +0.000 C 
ATOM      7  C   UNL     1      -9.215  -0.614  21.558  0.00  0.00    +0.000 C 
ATOM      8  O   UNL     1      -7.656  -2.437  21.521  0.00  0.00    +0.000 OA
ATOM      9  C   UNL     1      -7.109  -3.621  21.057  0.00  0.00    +0.000 C 
ATOM     10  C   UNL     1      -7.813  -4.456  20.259  0.00  0.00    +0.000 C 
ATOM     11  C   UNL     1      -9.283  -4.179  19.927  0.00  0.00    +0.000 C 
ATOM     12  H   UNL     1     -10.664  -0.147  19.256  0.00  0.00    +0.000 HD
ATOM     13  H   UNL     1     -12.264  -0.474  19.933  0.00  0.00    +0.000 HD
ATOM     14  H   UNL     1      -8.609   0.112  21.003  0.00  0.00    +0.000 HD
ATOM     15  H   UNL     1      -8.907  -0.537  22.609  0.00  0.00    +0.000 HD
ATOM     16  H   UNL     1      -9.836  -4.759  20.688  0.00  0.00    +0.000 HD
ENDROOT
BRANCH  11  17
ATOM     17  C   UNL     1      -9.764  -4.785  18.626  0.00  0.00    +0.000 A 
ATOM     18  C   UNL     1      -9.695  -4.290  17.332  0.00  0.00    +0.000 A 
ATOM     19  C   UNL     1     -10.222  -5.286  16.490  0.00  0.00    +0.000 A 
ATOM     20  C   UNL     1     -10.576  -6.342  17.306  0.00  0.00    +0.000 A 
ATOM     21  O   UNL     1     -10.332  -6.027  18.618  0.00  0.00    +0.000 OA
ATOM     22  H   UNL     1      -9.294  -3.333  17.038  0.00  0.00    +0.000 HD
ATOM     23  H   UNL     1     -10.311  -5.260  15.411  0.00  0.00    +0.000 HD
BRANCH  20  24
ATOM     24  C   UNL     1     -11.106  -7.695  16.995  0.00  0.00    +0.000 C 
ATOM     25  H   UNL     1     -12.125  -7.623  16.598  0.00  0.00    +0.000 HD
ATOM     26  H   UNL     1     -11.106  -8.294  17.914  0.00  0.00    +0.000 HD
BRANCH  24  27
ATOM     27  O   UNL     1     -10.223  -8.274  16.038  0.00  0.00    +0.000 OA
BRANCH  27  28
ATOM     28  C   UNL     1      -9.674  -9.491  16.335  0.00  0.00    +0.000 A 
ATOM     29  C   UNL     1      -9.231  -9.904  17.596  0.00  0.00    +0.000 A 
ATOM     30  C   UNL     1      -8.701 -11.189  17.763  0.00  0.00    +0.000 A 
ATOM     31  C   UNL     1      -8.609 -12.051  16.675  0.00  0.00    +0.000 A 
ATOM     32  F   UNL     1      -8.106 -13.280  16.848  0.00  0.00    +0.000 F 
ATOM     33  C   UNL     1      -9.029 -11.655  15.413  0.00  0.00    +0.000 A 
ATOM     34  C   UNL     1      -9.554 -10.377  15.256  0.00  0.00    +0.000 A 
ATOM     35  F   UNL     1      -9.957 -10.002  14.032  0.00  0.00    +0.000 F 
ATOM     36  H   UNL     1      -9.282  -9.257  18.466  0.00  0.00    +0.000 HD
ATOM     37  H   UNL     1      -8.357 -11.524  18.738  0.00  0.00    +0.000 HD
ATOM     38  H   UNL     1      -8.953 -12.327  14.568  0.00  0.00    +0.000 HD
ENDBRANCH  27  28
ENDBRANCH  24  27
ENDBRANCH  20  24
ENDBRANCH  11  17
BRANCH   1  39
ATOM     39  C   UNL     1     -10.885   1.254  21.631  0.00  0.00    +0.000 C 
ATOM     40  H   UNL     1     -10.932   1.520  22.693  0.00  0.00    +0.000 HD
ATOM     41  H   UNL     1     -11.805   1.614  21.156  0.00  0.00    +0.000 HD
ATOM     42  H   UNL     1     -10.046   1.803  21.187  0.00  0.00    +0.000 HD
ENDBRANCH   1  39
BRANCH   1  43
ATOM     43  C   UNL     1     -11.535  -0.974  22.538  0.00  0.00    +0.000 C 
ATOM     44  H   UNL     1     -11.104  -0.792  23.529  0.00  0.00    +0.000 HD
ATOM     45  H   UNL     1     -11.553  -2.057  22.377  0.00  0.00    +0.000 HD
ATOM     46  H   UNL     1     -12.576  -0.635  22.566  0.00  0.00    +0.000 HD
ENDBRANCH   1  43
BRANCH   9  47
ATOM     47  N   UNL     1      -5.833  -3.827  21.524  0.00  0.00    +0.000 N 
ATOM     48  H   UNL     1      -5.816  -4.169  22.482  0.00  0.00    +0.000 HD
ATOM     49  H   UNL     1      -5.158  -3.091  21.336  0.00  0.00    +0.000 HD
ENDBRANCH   9  47
BRANCH  10  50
ATOM     50  C   UNL     1      -7.204  -5.656  19.788  0.00  0.00    +0.000 C 
ATOM     51  N   UNL     1      -6.688  -6.633  19.436  0.00  0.00    +0.000 NA
ENDBRANCH  10  50
TORSDOF 8
ENDMDL
