
 OpenBabel01112423113D

 45 48  0  0  1  0  0  0  0  0999 V2000
    1.6461   -9.0174   -0.1149 C   0  0  0  0  0  0  0  0  0  0  0  0
    0.7034   -7.9665    0.3873 C   0  0  0  0  0  0  0  0  0  0  0  0
   -0.5446   -8.3856    0.9012 C   0  0  0  0  0  0  0  0  0  0  0  0
   -1.4834   -7.4857    1.3652 C   0  0  0  0  0  0  0  0  0  0  0  0
   -1.2046   -6.1322    1.3420 C   0  0  0  0  0  0  0  0  0  0  0  0
    0.0269   -5.6926    0.8443 C   0  0  0  0  0  0  0  0  0  0  0  0
    1.0126   -6.5865    0.3854 C   0  0  0  0  0  0  0  0  0  0  0  0
    2.2635   -6.0720   -0.0969 N   0  0  0  0  0  0  0  0  0  0  0  0
    2.8455   -4.9172    0.4131 C   0  0  0  0  0  0  0  0  0  0  0  0
    2.4665   -4.4197    1.4750 O   0  0  0  0  0  0  0  0  0  0  0  0
    3.7955   -4.1147   -0.4789 C   0  0  2  0  0  0  0  0  0  0  0  0
    4.9907   -5.1019   -1.5364 S   0  0  0  0  0  0  0  0  0  0  0  0
    6.1053   -3.8053   -2.0256 C   0  0  0  0  0  0  0  0  0  0  0  0
    7.2976   -3.8950   -2.5722 N   0  0  0  0  0  0  0  0  0  0  0  0
    7.7966   -2.5952   -2.7156 N   0  0  0  0  0  0  0  0  0  0  0  0
    6.9006   -1.7512   -2.2360 C   0  0  0  0  0  0  0  0  0  0  0  0
    6.8931   -0.2646   -2.2456 C   0  0  0  0  0  0  0  0  0  0  0  0
    5.8758   -2.4870   -1.7122 N   0  0  0  0  0  0  0  0  0  0  0  0
    4.9076   -1.9931   -0.8161 N   0  0  0  0  0  0  0  0  0  0  0  0
    4.6780   -3.0338    0.2189 C   0  0  1  0  0  0  0  0  0  0  0  0
    4.6247   -2.2605    1.5204 C   0  0  0  0  0  0  0  0  0  0  0  0
    3.4915   -1.7483    2.1275 C   0  0  0  0  0  0  0  0  0  0  0  0
    3.6159   -0.8718    3.2193 C   0  0  0  0  0  0  0  0  0  0  0  0
    4.8834   -0.4910    3.6834 C   0  0  0  0  0  0  0  0  0  0  0  0
    5.0203    0.6654    4.9514 Cl  0  0  0  0  0  0  0  0  0  0  0  0
    6.0318   -1.0001    3.1057 C   0  0  0  0  0  0  0  0  0  0  0  0
    5.9064   -1.8817    2.0401 C   0  0  0  0  0  0  0  0  0  0  0  0
    1.3155  -10.0221    0.2008 H   0  0  0  0  0  0  0  0  0  0  0  0
    2.6493   -8.8803    0.2954 H   0  0  0  0  0  0  0  0  0  0  0  0
    1.6757   -9.0115   -1.2059 H   0  0  0  0  0  0  0  0  0  0  0  0
   -0.7867   -9.4585    0.9362 H   0  0  0  0  0  0  0  0  0  0  0  0
   -2.4313   -7.8405    1.7873 H   0  0  0  0  0  0  0  0  0  0  0  0
   -1.9343   -5.4113    1.6976 H   0  0  0  0  0  0  0  0  0  0  0  0
    0.1894   -4.6178    0.8100 H   0  0  0  0  0  0  0  0  0  0  0  0
    2.8493   -6.6973   -0.6460 H   0  0  0  0  0  0  0  0  0  0  0  0
    3.1218   -3.6445   -1.2095 H   0  0  0  0  0  0  0  0  0  0  0  0
    7.8856    0.1488   -2.4340 H   0  0  0  0  0  0  0  0  0  0  0  0
    6.5330    0.1536   -1.2992 H   0  0  0  0  0  0  0  0  0  0  0  0
    6.2220    0.0911   -3.0352 H   0  0  0  0  0  0  0  0  0  0  0  0
    4.0361   -1.7244   -1.2649 H   0  0  0  0  0  0  0  0  0  0  0  0
    5.6038   -3.5914    0.4309 H   0  0  0  0  0  0  0  0  0  0  0  0
    2.4947   -1.9912    1.7661 H   0  0  0  0  0  0  0  0  0  0  0  0
    2.7259   -0.4686    3.6882 H   0  0  0  0  0  0  0  0  0  0  0  0
    7.0179   -0.7051    3.4474 H   0  0  0  0  0  0  0  0  0  0  0  0
    6.8187   -2.2347    1.5670 H   0  0  0  0  0  0  0  0  0  0  0  0
  1  2  1  0  0  0  0
  1 28  1  0  0  0  0
  1 29  1  0  0  0  0
  1 30  1  0  0  0  0
  2  3  1  0  0  0  0
  2  7  2  0  0  0  0
  3  4  2  0  0  0  0
  3 31  1  0  0  0  0
  4  5  1  0  0  0  0
  4 32  1  0  0  0  0
  5  6  2  0  0  0  0
  5 33  1  0  0  0  0
  6  7  1  0  0  0  0
  6 34  1  0  0  0  0
  7  8  1  0  0  0  0
  8  9  1  0  0  0  0
  8 35  1  0  0  0  0
  9 10  2  0  0  0  0
 11 12  1  0  0  0  0
 11 20  1  0  0  0  0
 11  9  1  0  0  0  0
 11 36  1  6  0  0  0
 12 13  1  0  0  0  0
 13 14  2  0  0  0  0
 13 18  1  0  0  0  0
 14 15  1  0  0  0  0
 15 16  2  0  0  0  0
 16 17  1  0  0  0  0
 16 18  1  0  0  0  0
 17 37  1  0  0  0  0
 17 38  1  0  0  0  0
 17 39  1  0  0  0  0
 18 19  1  0  0  0  0
 19 20  1  0  0  0  0
 19 40  1  0  0  0  0
 20 21  1  0  0  0  0
 20 41  1  1  0  0  0
 21 22  1  0  0  0  0
 21 27  2  0  0  0  0
 22 23  2  0  0  0  0
 22 42  1  0  0  0  0
 23 24  1  0  0  0  0
 23 43  1  0  0  0  0
 24 25  1  0  0  0  0
 24 26  2  0  0  0  0
 26 27  1  0  0  0  0
 26 44  1  0  0  0  0
 27 45  1  0  0  0  0
M  END
$$$$
