MODEL 1
REMARK VINA RESULT:   -11.377      0.000      0.000
REMARK INTER + INTRA:         -14.244
REMARK INTER:                 -13.704
REMARK INTRA:                  -0.539
REMARK UNBOUND:                -0.539
REMARK  Name = 
REMARK  5 active torsions:
REMARK  status: ('A' for Active; 'I' for Inactive)
REMARK    1  A    between atoms: C_1  and  C_2
REMARK    2  A    between atoms: N_6  and  C_7
REMARK    3  A    between atoms: N_12  and  C_13
REMARK    4  A    between atoms: C_20  and  C_21
REMARK    5  A    between atoms: C_24  and  N_25
REMARK                            x       y       z     vdW  Elec       q    Type
REMARK                         _______ _______ _______ _____ _____    ______ ____
ROOT
ATOM      1  C   UNL     1      -8.915  -8.181  17.798  0.00  0.00    +0.000 A 
ATOM      2  N   UNL     1      -9.232  -8.868  18.942  0.00  0.00    +0.000 NA
ATOM      3  C   UNL     1      -8.959  -8.233  20.096  0.00  0.00    +0.000 A 
ATOM      4  N   UNL     1      -8.507  -6.984  20.205  0.00  0.00    +0.000 NA
ATOM      5  C   UNL     1      -8.257  -6.294  19.090  0.00  0.00    +0.000 A 
ATOM      6  N   UNL     1      -7.917  -4.933  19.200  0.00  0.00    +0.000 N 
ATOM      7  C   UNL     1      -8.471  -6.851  17.805  0.00  0.00    +0.000 A 
ATOM      8  H   UNL     1      -9.107  -8.763  21.016  0.00  0.00    +0.000 HD
ATOM      9  H   UNL     1      -7.299  -4.710  18.417  0.00  0.00    +0.000 HD
ENDROOT
BRANCH   6  10
ATOM     10  C   UNL     1      -7.423  -4.145  20.305  0.00  0.00    +0.000 A 
ATOM     11  C   UNL     1      -6.023  -4.327  20.497  0.00  0.00    +0.000 A 
ATOM     12  C   UNL     1      -5.406  -4.020  21.696  0.00  0.00    +0.000 A 
ATOM     13  C   UNL     1      -6.221  -3.736  22.768  0.00  0.00    +0.000 A 
ATOM     14  C   UNL     1      -7.586  -3.560  22.569  0.00  0.00    +0.000 A 
ATOM     15  C   UNL     1      -8.361  -3.423  23.700  0.00  0.00    +0.000 A 
ATOM     16  C   UNL     1      -9.096  -2.277  23.702  0.00  0.00    +0.000 A 
ATOM     17  C   UNL     1      -9.643  -1.927  22.486  0.00  0.00    +0.000 A 
ATOM     18  N   UNL     1      -9.335  -2.621  21.322  0.00  0.00    +0.000 NA
ATOM     19  C   UNL     1      -8.193  -3.446  21.322  0.00  0.00    +0.000 A 
ATOM     20  H   UNL     1      -5.411  -4.743  19.698  0.00  0.00    +0.000 HD
ATOM     21  H   UNL     1      -4.331  -4.097  21.831  0.00  0.00    +0.000 HD
ATOM     22  H   UNL     1      -5.798  -3.603  23.762  0.00  0.00    +0.000 HD
ATOM     23  H   UNL     1      -9.087  -4.277  23.739  0.00  0.00    +0.000 HD
ATOM     24  H   UNL     1      -9.233  -1.714  24.615  0.00  0.00    +0.000 HD
BRANCH  17  25
ATOM     25  C   UNL     1     -10.462  -0.658  22.518  0.00  0.00    +0.000 C 
ATOM     26  H   UNL     1     -11.424  -0.780  23.012  0.00  0.00    +0.000 HD
ATOM     27  H   UNL     1     -10.607  -0.282  21.496  0.00  0.00    +0.000 HD
ATOM     28  H   UNL     1      -9.907   0.125  23.057  0.00  0.00    +0.000 HD
ENDBRANCH  17  25
ENDBRANCH   6  10
BRANCH   1  33
ATOM     29  C   UNL     1      -8.659 -12.967  16.096  0.00  0.00    +0.000 A 
ATOM     30  C   UNL     1      -8.986 -12.194  14.979  0.00  0.00    +0.000 A 
ATOM     31  C   UNL     1      -9.139 -10.809  15.101  0.00  0.00    +0.000 A 
ATOM     32  C   UNL     1      -8.933 -10.199  16.338  0.00  0.00    +0.000 A 
ATOM     33  N   UNL     1      -9.171  -8.838  16.564  0.00  0.00    +0.000 N 
ATOM     34  N   UNL     1      -8.634 -10.989  17.383  0.00  0.00    +0.000 N 
ATOM     35  C   UNL     1      -8.498 -12.317  17.314  0.00  0.00    +0.000 A 
ATOM     36  H   UNL     1      -9.133 -12.667  14.007  0.00  0.00    +0.000 HD
ATOM     37  H   UNL     1      -9.424 -10.225  14.231  0.00  0.00    +0.000 HD
ATOM     38  H   UNL     1      -8.903  -8.228  15.789  0.00  0.00    +0.000 HD
ATOM     39  H   UNL     1      -8.492 -10.497  18.274  0.00  0.00    +0.000 HD
ATOM     40  H   UNL     1      -8.267 -12.826  18.244  0.00  0.00    +0.000 HD
BRANCH  29  41
ATOM     41  C   UNL     1      -8.488 -14.455  16.007  0.00  0.00    +0.000 C 
ATOM     42  H   UNL     1      -8.402 -14.911  16.998  0.00  0.00    +0.000 HD
ATOM     43  H   UNL     1      -7.583 -14.700  15.441  0.00  0.00    +0.000 HD
ATOM     44  H   UNL     1      -9.354 -14.904  15.509  0.00  0.00    +0.000 HD
ENDBRANCH  29  41
ENDBRANCH   1  33
BRANCH   7  45
ATOM     45  N   UNL     1      -8.050  -6.230  16.602  0.00  0.00    +0.000 N 
ATOM     46  H   UNL     1      -8.359  -5.268  16.504  0.00  0.00    +0.000 HD
ATOM     47  H   UNL     1      -8.287  -6.757  15.765  0.00  0.00    +0.000 HD
ENDBRANCH   7  45
TORSDOF 5
ENDMDL
MODEL 2
REMARK VINA RESULT:   -10.174      1.750      8.971
REMARK INTER + INTRA:         -12.795
REMARK INTER:                 -11.988
REMARK INTRA:                  -0.806
REMARK UNBOUND:                -0.539
REMARK  Name = 
REMARK  5 active torsions:
REMARK  status: ('A' for Active; 'I' for Inactive)
REMARK    1  A    between atoms: C_1  and  C_2
REMARK    2  A    between atoms: N_6  and  C_7
REMARK    3  A    between atoms: N_12  and  C_13
REMARK    4  A    between atoms: C_20  and  C_21
REMARK    5  A    between atoms: C_24  and  N_25
REMARK                            x       y       z     vdW  Elec       q    Type
REMARK                         _______ _______ _______ _____ _____    ______ ____
ROOT
ATOM      1  C   UNL     1      -8.615  -3.748  20.199  0.00  0.00    +0.000 A 
ATOM      2  N   UNL     1      -7.332  -4.081  20.550  0.00  0.00    +0.000 NA
ATOM      3  C   UNL     1      -6.818  -5.154  19.921  0.00  0.00    +0.000 A 
ATOM      4  N   UNL     1      -7.411  -5.836  18.941  0.00  0.00    +0.000 NA
ATOM      5  C   UNL     1      -8.637  -5.472  18.559  0.00  0.00    +0.000 A 
ATOM      6  N   UNL     1      -9.207  -6.096  17.434  0.00  0.00    +0.000 N 
ATOM      7  C   UNL     1      -9.310  -4.378  19.157  0.00  0.00    +0.000 A 
ATOM      8  H   UNL     1      -5.852  -5.507  20.223  0.00  0.00    +0.000 HD
ATOM      9  H   UNL     1     -10.219  -6.110  17.574  0.00  0.00    +0.000 HD
ENDROOT
BRANCH   6  10
ATOM     10  C   UNL     1      -8.904  -7.335  16.757  0.00  0.00    +0.000 A 
ATOM     11  C   UNL     1      -8.761  -7.146  15.352  0.00  0.00    +0.000 A 
ATOM     12  C   UNL     1      -8.875  -8.196  14.460  0.00  0.00    +0.000 A 
ATOM     13  C   UNL     1      -9.345  -9.392  14.953  0.00  0.00    +0.000 A 
ATOM     14  C   UNL     1      -9.482  -9.566  16.325  0.00  0.00    +0.000 A 
ATOM     15  C   UNL     1     -10.092 -10.729  16.741  0.00  0.00    +0.000 A 
ATOM     16  C   UNL     1      -9.324 -11.450  17.604  0.00  0.00    +0.000 A 
ATOM     17  C   UNL     1      -8.626 -10.708  18.532  0.00  0.00    +0.000 A 
ATOM     18  N   UNL     1      -8.601  -9.319  18.484  0.00  0.00    +0.000 NA
ATOM     19  C   UNL     1      -8.986  -8.688  17.285  0.00  0.00    +0.000 A 
ATOM     20  H   UNL     1      -8.582  -6.150  14.951  0.00  0.00    +0.000 HD
ATOM     21  H   UNL     1      -8.705  -8.072  13.394  0.00  0.00    +0.000 HD
ATOM     22  H   UNL     1      -9.567 -10.217  14.278  0.00  0.00    +0.000 HD
ATOM     23  H   UNL     1     -11.033 -10.460  17.289  0.00  0.00    +0.000 HD
ATOM     24  H   UNL     1      -9.299 -12.530  17.545  0.00  0.00    +0.000 HD
BRANCH  17  25
ATOM     25  C   UNL     1      -7.791 -11.532  19.483  0.00  0.00    +0.000 C 
ATOM     26  H   UNL     1      -8.228 -12.503  19.708  0.00  0.00    +0.000 HD
ATOM     27  H   UNL     1      -7.619 -10.971  20.411  0.00  0.00    +0.000 HD
ATOM     28  H   UNL     1      -6.797 -11.708  19.043  0.00  0.00    +0.000 HD
ENDBRANCH  17  25
ENDBRANCH   6  10
BRANCH   1  33
ATOM     29  C   UNL     1      -9.105  -2.245  25.033  0.00  0.00    +0.000 A 
ATOM     30  C   UNL     1      -9.817  -1.308  24.281  0.00  0.00    +0.000 A 
ATOM     31  C   UNL     1      -9.883  -1.426  22.889  0.00  0.00    +0.000 A 
ATOM     32  C   UNL     1      -9.262  -2.504  22.258  0.00  0.00    +0.000 A 
ATOM     33  N   UNL     1      -9.192  -2.633  20.865  0.00  0.00    +0.000 N 
ATOM     34  N   UNL     1      -8.579  -3.369  23.026  0.00  0.00    +0.000 N 
ATOM     35  C   UNL     1      -8.474  -3.282  24.355  0.00  0.00    +0.000 A 
ATOM     36  H   UNL     1     -10.316  -0.472  24.773  0.00  0.00    +0.000 HD
ATOM     37  H   UNL     1     -10.413  -0.672  22.314  0.00  0.00    +0.000 HD
ATOM     38  H   UNL     1     -10.036  -2.338  20.372  0.00  0.00    +0.000 HD
ATOM     39  H   UNL     1      -8.137  -4.145  22.519  0.00  0.00    +0.000 HD
ATOM     40  H   UNL     1      -7.879  -4.047  24.843  0.00  0.00    +0.000 HD
BRANCH  29  41
ATOM     41  C   UNL     1      -9.009  -2.152  26.528  0.00  0.00    +0.000 C 
ATOM     42  H   UNL     1      -7.970  -2.054  26.859  0.00  0.00    +0.000 HD
ATOM     43  H   UNL     1      -9.429  -3.050  26.993  0.00  0.00    +0.000 HD
ATOM     44  H   UNL     1      -9.557  -1.274  26.886  0.00  0.00    +0.000 HD
ENDBRANCH  29  41
ENDBRANCH   1  33
BRANCH   7  45
ATOM     45  N   UNL     1     -10.673  -4.069  18.916  0.00  0.00    +0.000 N 
ATOM     46  H   UNL     1     -11.294  -4.317  19.680  0.00  0.00    +0.000 HD
ATOM     47  H   UNL     1     -11.030  -4.448  18.043  0.00  0.00    +0.000 HD
ENDBRANCH   7  45
TORSDOF 5
ENDMDL
MODEL 3
REMARK VINA RESULT:    -9.951      1.589      2.061
REMARK INTER + INTRA:         -12.527
REMARK INTER:                 -11.725
REMARK INTRA:                  -0.802
REMARK UNBOUND:                -0.539
REMARK  Name = 
REMARK  5 active torsions:
REMARK  status: ('A' for Active; 'I' for Inactive)
REMARK    1  A    between atoms: C_1  and  C_2
REMARK    2  A    between atoms: N_6  and  C_7
REMARK    3  A    between atoms: N_12  and  C_13
REMARK    4  A    between atoms: C_20  and  C_21
REMARK    5  A    between atoms: C_24  and  N_25
REMARK                            x       y       z     vdW  Elec       q    Type
REMARK                         _______ _______ _______ _____ _____    ______ ____
ROOT
ATOM      1  C   UNL     1      -9.851  -7.151  16.849  0.00  0.00    +0.000 A 
ATOM      2  N   UNL     1     -11.122  -7.162  17.363  0.00  0.00    +0.000 NA
ATOM      3  C   UNL     1     -11.331  -6.349  18.414  0.00  0.00    +0.000 A 
ATOM      4  N   UNL     1     -10.446  -5.486  18.915  0.00  0.00    +0.000 NA
ATOM      5  C   UNL     1      -9.228  -5.432  18.373  0.00  0.00    +0.000 A 
ATOM      6  N   UNL     1      -8.341  -4.428  18.803  0.00  0.00    +0.000 N 
ATOM      7  C   UNL     1      -8.861  -6.255  17.279  0.00  0.00    +0.000 A 
ATOM      8  H   UNL     1     -12.282  -6.387  18.906  0.00  0.00    +0.000 HD
ATOM      9  H   UNL     1      -7.394  -4.800  18.715  0.00  0.00    +0.000 HD
ENDROOT
BRANCH   6  10
ATOM     10  C   UNL     1      -8.313  -3.604  19.988  0.00  0.00    +0.000 A 
ATOM     11  C   UNL     1      -7.567  -4.217  21.037  0.00  0.00    +0.000 A 
ATOM     12  C   UNL     1      -7.726  -3.843  22.359  0.00  0.00    +0.000 A 
ATOM     13  C   UNL     1      -8.782  -3.012  22.654  0.00  0.00    +0.000 A 
ATOM     14  C   UNL     1      -9.503  -2.419  21.624  0.00  0.00    +0.000 A 
ATOM     15  C   UNL     1     -10.634  -1.719  21.986  0.00  0.00    +0.000 A 
ATOM     16  C   UNL     1     -10.619  -0.430  21.548  0.00  0.00    +0.000 A 
ATOM     17  C   UNL     1     -10.111  -0.244  20.280  0.00  0.00    +0.000 A 
ATOM     18  N   UNL     1      -9.523  -1.286  19.572  0.00  0.00    +0.000 NA
ATOM     19  C   UNL     1      -9.122  -2.433  20.286  0.00  0.00    +0.000 A 
ATOM     20  H   UNL     1      -6.868  -5.020  20.813  0.00  0.00    +0.000 HD
ATOM     21  H   UNL     1      -7.117  -4.260  23.156  0.00  0.00    +0.000 HD
ATOM     22  H   UNL     1      -9.028  -2.779  23.689  0.00  0.00    +0.000 HD
ATOM     23  H   UNL     1     -11.523  -2.213  21.517  0.00  0.00    +0.000 HD
ATOM     24  H   UNL     1     -11.001   0.366  22.172  0.00  0.00    +0.000 HD
BRANCH  17  25
ATOM     25  C   UNL     1     -10.117   1.192  19.814  0.00  0.00    +0.000 C 
ATOM     26  H   UNL     1     -10.104   1.909  20.632  0.00  0.00    +0.000 HD
ATOM     27  H   UNL     1     -10.986   1.371  19.168  0.00  0.00    +0.000 HD
ATOM     28  H   UNL     1      -9.228   1.381  19.191  0.00  0.00    +0.000 HD
ENDBRANCH  17  25
ENDBRANCH   6  10
BRANCH   1  33
ATOM     29  C   UNL     1      -8.768 -12.088  16.288  0.00  0.00    +0.000 A 
ATOM     30  C   UNL     1      -8.683 -11.543  15.004  0.00  0.00    +0.000 A 
ATOM     31  C   UNL     1      -8.931 -10.181  14.800  0.00  0.00    +0.000 A 
ATOM     32  C   UNL     1      -9.231  -9.364  15.889  0.00  0.00    +0.000 A 
ATOM     33  N   UNL     1      -9.595  -8.018  15.753  0.00  0.00    +0.000 N 
ATOM     34  N   UNL     1      -9.314  -9.941  17.100  0.00  0.00    +0.000 N 
ATOM     35  C   UNL     1      -9.106 -11.239  17.335  0.00  0.00    +0.000 A 
ATOM     36  H   UNL     1      -8.434 -12.177  14.152  0.00  0.00    +0.000 HD
ATOM     37  H   UNL     1      -8.891  -9.778  13.792  0.00  0.00    +0.000 HD
ATOM     38  H   UNL     1      -9.082  -7.514  15.028  0.00  0.00    +0.000 HD
ATOM     39  H   UNL     1      -9.539  -9.301  17.871  0.00  0.00    +0.000 HD
ATOM     40  H   UNL     1      -9.220 -11.566  18.364  0.00  0.00    +0.000 HD
BRANCH  29  41
ATOM     41  C   UNL     1      -8.512 -13.544  16.547  0.00  0.00    +0.000 C 
ATOM     42  H   UNL     1      -7.567 -13.698  17.077  0.00  0.00    +0.000 HD
ATOM     43  H   UNL     1      -8.465 -14.096  15.604  0.00  0.00    +0.000 HD
ATOM     44  H   UNL     1      -9.312 -13.962  17.167  0.00  0.00    +0.000 HD
ENDBRANCH  29  41
ENDBRANCH   1  33
BRANCH   7  45
ATOM     45  N   UNL     1      -7.534  -6.366  16.791  0.00  0.00    +0.000 N 
ATOM     46  H   UNL     1      -6.960  -5.547  16.968  0.00  0.00    +0.000 HD
ATOM     47  H   UNL     1      -7.479  -6.621  15.809  0.00  0.00    +0.000 HD
ENDBRANCH   7  45
TORSDOF 5
ENDMDL
MODEL 4
REMARK VINA RESULT:    -9.930      1.729      2.702
REMARK INTER + INTRA:         -12.501
REMARK INTER:                 -12.292
REMARK INTRA:                  -0.209
REMARK UNBOUND:                -0.539
REMARK  Name = 
REMARK  5 active torsions:
REMARK  status: ('A' for Active; 'I' for Inactive)
REMARK    1  A    between atoms: C_1  and  C_2
REMARK    2  A    between atoms: N_6  and  C_7
REMARK    3  A    between atoms: N_12  and  C_13
REMARK    4  A    between atoms: C_20  and  C_21
REMARK    5  A    between atoms: C_24  and  N_25
REMARK                            x       y       z     vdW  Elec       q    Type
REMARK                         _______ _______ _______ _____ _____    ______ ____
ROOT
ATOM      1  C   UNL     1      -8.691  -6.447  18.059  0.00  0.00    +0.000 A 
ATOM      2  N   UNL     1      -7.337  -6.628  18.184  0.00  0.00    +0.000 NA
ATOM      3  C   UNL     1      -6.694  -5.704  18.920  0.00  0.00    +0.000 A 
ATOM      4  N   UNL     1      -7.271  -4.712  19.598  0.00  0.00    +0.000 NA
ATOM      5  C   UNL     1      -8.597  -4.575  19.525  0.00  0.00    +0.000 A 
ATOM      6  N   UNL     1      -9.224  -3.621  20.348  0.00  0.00    +0.000 N 
ATOM      7  C   UNL     1      -9.397  -5.459  18.761  0.00  0.00    +0.000 A 
ATOM      8  H   UNL     1      -5.624  -5.751  18.974  0.00  0.00    +0.000 HD
ATOM      9  H   UNL     1     -10.053  -3.289  19.853  0.00  0.00    +0.000 HD
ENDROOT
BRANCH   6  10
ATOM     10  C   UNL     1      -8.717  -2.464  21.048  0.00  0.00    +0.000 A 
ATOM     11  C   UNL     1      -7.486  -2.746  21.709  0.00  0.00    +0.000 A 
ATOM     12  C   UNL     1      -7.020  -1.962  22.748  0.00  0.00    +0.000 A 
ATOM     13  C   UNL     1      -7.887  -1.028  23.268  0.00  0.00    +0.000 A 
ATOM     14  C   UNL     1      -9.085  -0.760  22.616  0.00  0.00    +0.000 A 
ATOM     15  C   UNL     1      -9.967   0.076  23.266  0.00  0.00    +0.000 A 
ATOM     16  C   UNL     1     -10.323   1.155  22.515  0.00  0.00    +0.000 A 
ATOM     17  C   UNL     1     -10.528   0.899  21.176  0.00  0.00    +0.000 A 
ATOM     18  N   UNL     1     -10.242  -0.342  20.620  0.00  0.00    +0.000 NA
ATOM     19  C   UNL     1      -9.410  -1.220  21.343  0.00  0.00    +0.000 A 
ATOM     20  H   UNL     1      -6.896  -3.613  21.417  0.00  0.00    +0.000 HD
ATOM     21  H   UNL     1      -6.054  -2.132  23.214  0.00  0.00    +0.000 HD
ATOM     22  H   UNL     1      -7.619  -0.465  24.161  0.00  0.00    +0.000 HD
ATOM     23  H   UNL     1     -10.907  -0.497  23.480  0.00  0.00    +0.000 HD
ATOM     24  H   UNL     1     -10.442   2.127  22.974  0.00  0.00    +0.000 HD
BRANCH  17  25
ATOM     25  C   UNL     1     -10.932   2.110  20.369  0.00  0.00    +0.000 C 
ATOM     26  H   UNL     1     -10.491   2.131  19.375  0.00  0.00    +0.000 HD
ATOM     27  H   UNL     1     -10.674   3.026  20.917  0.00  0.00    +0.000 HD
ATOM     28  H   UNL     1     -12.027   2.124  20.249  0.00  0.00    +0.000 HD
ENDBRANCH  17  25
ENDBRANCH   6  10
BRANCH   1  33
ATOM     29  C   UNL     1      -8.996 -11.520  17.861  0.00  0.00    +0.000 A 
ATOM     30  C   UNL     1      -9.756 -11.061  16.782  0.00  0.00    +0.000 A 
ATOM     31  C   UNL     1      -9.887  -9.689  16.546  0.00  0.00    +0.000 A 
ATOM     32  C   UNL     1      -9.227  -8.781  17.373  0.00  0.00    +0.000 A 
ATOM     33  N   UNL     1      -9.394  -7.394  17.267  0.00  0.00    +0.000 N 
ATOM     34  N   UNL     1      -8.520  -9.273  18.404  0.00  0.00    +0.000 N 
ATOM     35  C   UNL     1      -8.386 -10.574  18.677  0.00  0.00    +0.000 A 
ATOM     36  H   UNL     1     -10.261 -11.770  16.124  0.00  0.00    +0.000 HD
ATOM     37  H   UNL     1     -10.506  -9.346  15.722  0.00  0.00    +0.000 HD
ATOM     38  H   UNL     1      -9.469  -7.051  16.307  0.00  0.00    +0.000 HD
ATOM     39  H   UNL     1      -8.053  -8.568  18.987  0.00  0.00    +0.000 HD
ATOM     40  H   UNL     1      -7.794 -10.824  19.552  0.00  0.00    +0.000 HD
BRANCH  29  41
ATOM     41  C   UNL     1      -8.833 -12.983  18.149  0.00  0.00    +0.000 C 
ATOM     42  H   UNL     1      -9.221 -13.244  19.140  0.00  0.00    +0.000 HD
ATOM     43  H   UNL     1      -7.775 -13.263  18.115  0.00  0.00    +0.000 HD
ATOM     44  H   UNL     1      -9.384 -13.576  17.411  0.00  0.00    +0.000 HD
ENDBRANCH  29  41
ENDBRANCH   1  33
BRANCH   7  45
ATOM     45  N   UNL     1     -10.776  -5.247  18.505  0.00  0.00    +0.000 N 
ATOM     46  H   UNL     1     -10.990  -5.051  17.532  0.00  0.00    +0.000 HD
ATOM     47  H   UNL     1     -11.199  -4.541  19.101  0.00  0.00    +0.000 HD
ENDBRANCH   7  45
TORSDOF 5
ENDMDL
MODEL 5
REMARK VINA RESULT:    -9.770      2.906      3.907
REMARK INTER + INTRA:         -12.308
REMARK INTER:                 -11.929
REMARK INTRA:                  -0.379
REMARK UNBOUND:                -0.539
REMARK  Name = 
REMARK  5 active torsions:
REMARK  status: ('A' for Active; 'I' for Inactive)
REMARK    1  A    between atoms: C_1  and  C_2
REMARK    2  A    between atoms: N_6  and  C_7
REMARK    3  A    between atoms: N_12  and  C_13
REMARK    4  A    between atoms: C_20  and  C_21
REMARK    5  A    between atoms: C_24  and  N_25
REMARK                            x       y       z     vdW  Elec       q    Type
REMARK                         _______ _______ _______ _____ _____    ______ ____
ROOT
ATOM      1  C   UNL     1      -9.853  -6.838  16.590  0.00  0.00    +0.000 A 
ATOM      2  N   UNL     1      -8.852  -6.787  17.527  0.00  0.00    +0.000 NA
ATOM      3  C   UNL     1      -8.780  -5.647  18.238  0.00  0.00    +0.000 A 
ATOM      4  N   UNL     1      -9.644  -4.634  18.170  0.00  0.00    +0.000 NA
ATOM      5  C   UNL     1     -10.654  -4.712  17.300  0.00  0.00    +0.000 A 
ATOM      6  N   UNL     1     -11.645  -3.713  17.325  0.00  0.00    +0.000 N 
ATOM      7  C   UNL     1     -10.833  -5.843  16.466  0.00  0.00    +0.000 A 
ATOM      8  H   UNL     1      -7.962  -5.524  18.920  0.00  0.00    +0.000 HD
ATOM      9  H   UNL     1     -12.002  -3.616  16.373  0.00  0.00    +0.000 HD
ENDROOT
BRANCH   6  10
ATOM     10  C   UNL     1     -11.658  -2.376  17.869  0.00  0.00    +0.000 A 
ATOM     11  C   UNL     1     -11.923  -1.401  16.864  0.00  0.00    +0.000 A 
ATOM     12  C   UNL     1     -11.595  -0.069  17.035  0.00  0.00    +0.000 A 
ATOM     13  C   UNL     1     -10.808   0.250  18.118  0.00  0.00    +0.000 A 
ATOM     14  C   UNL     1     -10.554  -0.708  19.093  0.00  0.00    +0.000 A 
ATOM     15  C   UNL     1      -9.644  -0.369  20.070  0.00  0.00    +0.000 A 
ATOM     16  C   UNL     1     -10.152  -0.480  21.328  0.00  0.00    +0.000 A 
ATOM     17  C   UNL     1     -10.964  -1.574  21.541  0.00  0.00    +0.000 A 
ATOM     18  N   UNL     1     -11.346  -2.410  20.499  0.00  0.00    +0.000 NA
ATOM     19  C   UNL     1     -11.204  -1.937  19.179  0.00  0.00    +0.000 A 
ATOM     20  H   UNL     1     -12.373  -1.700  15.919  0.00  0.00    +0.000 HD
ATOM     21  H   UNL     1     -11.851   0.690  16.302  0.00  0.00    +0.000 HD
ATOM     22  H   UNL     1     -10.420   1.260  18.240  0.00  0.00    +0.000 HD
ATOM     23  H   UNL     1      -8.774  -1.073  20.006  0.00  0.00    +0.000 HD
ATOM     24  H   UNL     1      -9.904   0.249  22.087  0.00  0.00    +0.000 HD
BRANCH  17  25
ATOM     25  C   UNL     1     -11.505  -1.680  22.947  0.00  0.00    +0.000 C 
ATOM     26  H   UNL     1     -11.054  -2.485  23.522  0.00  0.00    +0.000 HD
ATOM     27  H   UNL     1     -12.596  -1.802  22.918  0.00  0.00    +0.000 HD
ATOM     28  H   UNL     1     -11.317  -0.738  23.486  0.00  0.00    +0.000 HD
ENDBRANCH  17  25
ENDBRANCH   6  10
BRANCH   1  33
ATOM     29  C   UNL     1      -8.845 -11.769  17.317  0.00  0.00    +0.000 A 
ATOM     30  C   UNL     1      -9.200 -11.659  15.970  0.00  0.00    +0.000 A 
ATOM     31  C   UNL     1      -9.547 -10.415  15.433  0.00  0.00    +0.000 A 
ATOM     32  C   UNL     1      -9.504  -9.279  16.241  0.00  0.00    +0.000 A 
ATOM     33  N   UNL     1      -9.938  -8.020  15.807  0.00  0.00    +0.000 N 
ATOM     34  N   UNL     1      -9.169  -9.442  17.532  0.00  0.00    +0.000 N 
ATOM     35  C   UNL     1      -8.851 -10.614  18.089  0.00  0.00    +0.000 A 
ATOM     36  H   UNL     1      -9.220 -12.543  15.332  0.00  0.00    +0.000 HD
ATOM     37  H   UNL     1      -9.851 -10.350  14.392  0.00  0.00    +0.000 HD
ATOM     38  H   UNL     1      -9.706  -7.806  14.835  0.00  0.00    +0.000 HD
ATOM     39  H   UNL     1      -9.153  -8.578  18.089  0.00  0.00    +0.000 HD
ATOM     40  H   UNL     1      -8.613 -10.594  19.148  0.00  0.00    +0.000 HD
BRANCH  29  41
ATOM     41  C   UNL     1      -8.469 -13.086  17.931  0.00  0.00    +0.000 C 
ATOM     42  H   UNL     1      -8.827 -13.166  18.962  0.00  0.00    +0.000 HD
ATOM     43  H   UNL     1      -7.380 -13.204  17.941  0.00  0.00    +0.000 HD
ATOM     44  H   UNL     1      -8.913 -13.908  17.360  0.00  0.00    +0.000 HD
ENDBRANCH  29  41
ENDBRANCH   1  33
BRANCH   7  45
ATOM     45  N   UNL     1     -11.774  -5.893  15.406  0.00  0.00    +0.000 N 
ATOM     46  H   UNL     1     -12.382  -5.081  15.354  0.00  0.00    +0.000 HD
ATOM     47  H   UNL     1     -12.331  -6.743  15.392  0.00  0.00    +0.000 HD
ENDBRANCH   7  45
TORSDOF 5
ENDMDL
MODEL 6
REMARK VINA RESULT:    -9.753      2.188      3.302
REMARK INTER + INTRA:         -12.287
REMARK INTER:                 -12.387
REMARK INTRA:                   0.099
REMARK UNBOUND:                -0.539
REMARK  Name = 
REMARK  5 active torsions:
REMARK  status: ('A' for Active; 'I' for Inactive)
REMARK    1  A    between atoms: C_1  and  C_2
REMARK    2  A    between atoms: N_6  and  C_7
REMARK    3  A    between atoms: N_12  and  C_13
REMARK    4  A    between atoms: C_20  and  C_21
REMARK    5  A    between atoms: C_24  and  N_25
REMARK                            x       y       z     vdW  Elec       q    Type
REMARK                         _______ _______ _______ _____ _____    ______ ____
ROOT
ATOM      1  C   UNL     1      -8.835  -9.176  18.444  0.00  0.00    +0.000 A 
ATOM      2  N   UNL     1      -8.869  -8.848  17.112  0.00  0.00    +0.000 NA
ATOM      3  C   UNL     1      -8.876  -7.531  16.839  0.00  0.00    +0.000 A 
ATOM      4  N   UNL     1      -8.756  -6.552  17.736  0.00  0.00    +0.000 NA
ATOM      5  C   UNL     1      -8.661  -6.875  19.027  0.00  0.00    +0.000 A 
ATOM      6  N   UNL     1      -8.392  -5.857  19.960  0.00  0.00    +0.000 N 
ATOM      7  C   UNL     1      -8.670  -8.224  19.460  0.00  0.00    +0.000 A 
ATOM      8  H   UNL     1      -8.992  -7.224  15.818  0.00  0.00    +0.000 HD
ATOM      9  H   UNL     1      -8.835  -6.126  20.840  0.00  0.00    +0.000 HD
ENDROOT
BRANCH   6  10
ATOM     10  C   UNL     1      -8.531  -4.421  19.894  0.00  0.00    +0.000 A 
ATOM     11  C   UNL     1      -7.770  -3.770  20.907  0.00  0.00    +0.000 A 
ATOM     12  C   UNL     1      -8.044  -2.476  21.307  0.00  0.00    +0.000 A 
ATOM     13  C   UNL     1      -9.212  -1.910  20.848  0.00  0.00    +0.000 A 
ATOM     14  C   UNL     1      -9.948  -2.553  19.860  0.00  0.00    +0.000 A 
ATOM     15  C   UNL     1     -11.175  -2.008  19.552  0.00  0.00    +0.000 A 
ATOM     16  C   UNL     1     -11.302  -1.704  18.231  0.00  0.00    +0.000 A 
ATOM     17  C   UNL     1     -10.756  -2.622  17.360  0.00  0.00    +0.000 A 
ATOM     18  N   UNL     1     -10.004  -3.699  17.814  0.00  0.00    +0.000 NA
ATOM     19  C   UNL     1      -9.498  -3.649  19.129  0.00  0.00    +0.000 A 
ATOM     20  H   UNL     1      -6.963  -4.301  21.409  0.00  0.00    +0.000 HD
ATOM     21  H   UNL     1      -7.430  -1.951  22.033  0.00  0.00    +0.000 HD
ATOM     22  H   UNL     1      -9.539  -0.941  21.222  0.00  0.00    +0.000 HD
ATOM     23  H   UNL     1     -11.969  -2.762  19.791  0.00  0.00    +0.000 HD
ATOM     24  H   UNL     1     -11.815  -0.803  17.922  0.00  0.00    +0.000 HD
BRANCH  17  25
ATOM     25  C   UNL     1     -10.921  -2.267  15.901  0.00  0.00    +0.000 C 
ATOM     26  H   UNL     1     -10.441  -2.976  15.229  0.00  0.00    +0.000 HD
ATOM     27  H   UNL     1     -10.537  -1.254  15.719  0.00  0.00    +0.000 HD
ATOM     28  H   UNL     1     -11.992  -2.239  15.647  0.00  0.00    +0.000 HD
ENDBRANCH  17  25
ENDBRANCH   6  10
BRANCH   1  33
ATOM     29  C   UNL     1      -8.633 -13.524  15.814  0.00  0.00    +0.000 A 
ATOM     30  C   UNL     1      -8.837 -13.905  17.143  0.00  0.00    +0.000 A 
ATOM     31  C   UNL     1      -8.938 -12.935  18.145  0.00  0.00    +0.000 A 
ATOM     32  C   UNL     1      -8.866 -11.584  17.807  0.00  0.00    +0.000 A 
ATOM     33  N   UNL     1      -8.851 -10.560  18.763  0.00  0.00    +0.000 N 
ATOM     34  N   UNL     1      -8.655 -11.272  16.518  0.00  0.00    +0.000 N 
ATOM     35  C   UNL     1      -8.533 -12.167  15.533  0.00  0.00    +0.000 A 
ATOM     36  H   UNL     1      -8.909 -14.960  17.408  0.00  0.00    +0.000 HD
ATOM     37  H   UNL     1      -9.065 -13.247  19.178  0.00  0.00    +0.000 HD
ATOM     38  H   UNL     1      -9.466 -10.721  19.563  0.00  0.00    +0.000 HD
ATOM     39  H   UNL     1      -8.607 -10.266  16.316  0.00  0.00    +0.000 HD
ATOM     40  H   UNL     1      -8.353 -11.768  14.540  0.00  0.00    +0.000 HD
BRANCH  29  41
ATOM     41  C   UNL     1      -8.518 -14.534  14.710  0.00  0.00    +0.000 C 
ATOM     42  H   UNL     1      -9.453 -14.625  14.149  0.00  0.00    +0.000 HD
ATOM     43  H   UNL     1      -8.272 -15.519  15.120  0.00  0.00    +0.000 HD
ATOM     44  H   UNL     1      -7.736 -14.234  14.006  0.00  0.00    +0.000 HD
ENDBRANCH  29  41
ENDBRANCH   1  33
BRANCH   7  45
ATOM     45  N   UNL     1      -8.756  -8.609  20.822  0.00  0.00    +0.000 N 
ATOM     46  H   UNL     1      -8.080  -9.317  21.095  0.00  0.00    +0.000 HD
ATOM     47  H   UNL     1      -9.689  -8.893  21.110  0.00  0.00    +0.000 HD
ENDBRANCH   7  45
TORSDOF 5
ENDMDL
MODEL 7
REMARK VINA RESULT:    -9.680      3.515      4.806
REMARK INTER + INTRA:         -12.200
REMARK INTER:                 -11.885
REMARK INTRA:                  -0.314
REMARK UNBOUND:                -0.539
REMARK  Name = 
REMARK  5 active torsions:
REMARK  status: ('A' for Active; 'I' for Inactive)
REMARK    1  A    between atoms: C_1  and  C_2
REMARK    2  A    between atoms: N_6  and  C_7
REMARK    3  A    between atoms: N_12  and  C_13
REMARK    4  A    between atoms: C_20  and  C_21
REMARK    5  A    between atoms: C_24  and  N_25
REMARK                            x       y       z     vdW  Elec       q    Type
REMARK                         _______ _______ _______ _____ _____    ______ ____
ROOT
ATOM      1  C   UNL     1      -9.624  -8.303  17.991  0.00  0.00    +0.000 A 
ATOM      2  N   UNL     1     -10.575  -8.400  17.008  0.00  0.00    +0.000 NA
ATOM      3  C   UNL     1     -11.099  -7.234  16.589  0.00  0.00    +0.000 A 
ATOM      4  N   UNL     1     -10.702  -6.022  16.976  0.00  0.00    +0.000 NA
ATOM      5  C   UNL     1      -9.732  -5.928  17.889  0.00  0.00    +0.000 A 
ATOM      6  N   UNL     1      -9.214  -4.656  18.195  0.00  0.00    +0.000 N 
ATOM      7  C   UNL     1      -9.112  -7.077  18.439  0.00  0.00    +0.000 A 
ATOM      8  H   UNL     1     -11.907  -7.263  15.886  0.00  0.00    +0.000 HD
ATOM      9  H   UNL     1      -8.912  -4.677  19.171  0.00  0.00    +0.000 HD
ENDROOT
BRANCH   6  10
ATOM     10  C   UNL     1      -9.735  -3.324  17.993  0.00  0.00    +0.000 A 
ATOM     11  C   UNL     1      -9.709  -2.560  19.196  0.00  0.00    +0.000 A 
ATOM     12  C   UNL     1     -10.501  -1.440  19.364  0.00  0.00    +0.000 A 
ATOM     13  C   UNL     1     -11.473  -1.209  18.418  0.00  0.00    +0.000 A 
ATOM     14  C   UNL     1     -11.490  -1.959  17.248  0.00  0.00    +0.000 A 
ATOM     15  C   UNL     1     -12.572  -1.777  16.414  0.00  0.00    +0.000 A 
ATOM     16  C   UNL     1     -12.210  -1.421  15.150  0.00  0.00    +0.000 A 
ATOM     17  C   UNL     1     -11.099  -2.066  14.652  0.00  0.00    +0.000 A 
ATOM     18  N   UNL     1     -10.326  -2.906  15.446  0.00  0.00    +0.000 NA
ATOM     19  C   UNL     1     -10.467  -2.813  16.845  0.00  0.00    +0.000 A 
ATOM     20  H   UNL     1      -9.074  -2.868  20.024  0.00  0.00    +0.000 HD
ATOM     21  H   UNL     1     -10.441  -0.816  20.252  0.00  0.00    +0.000 HD
ATOM     22  H   UNL     1     -12.202  -0.412  18.559  0.00  0.00    +0.000 HD
ATOM     23  H   UNL     1     -13.126  -2.748  16.333  0.00  0.00    +0.000 HD
ATOM     24  H   UNL     1     -12.787  -0.690  14.601  0.00  0.00    +0.000 HD
BRANCH  17  25
ATOM     25  C   UNL     1     -10.727  -1.661  13.245  0.00  0.00    +0.000 C 
ATOM     26  H   UNL     1      -9.658  -1.511  13.109  0.00  0.00    +0.000 HD
ATOM     27  H   UNL     1     -11.274  -0.752  12.962  0.00  0.00    +0.000 HD
ATOM     28  H   UNL     1     -11.046  -2.444  12.539  0.00  0.00    +0.000 HD
ENDBRANCH  17  25
ENDBRANCH   6  10
BRANCH   1  33
ATOM     29  C   UNL     1      -8.664 -12.893  16.022  0.00  0.00    +0.000 A 
ATOM     30  C   UNL     1      -8.348 -12.999  17.379  0.00  0.00    +0.000 A 
ATOM     31  C   UNL     1      -8.498 -11.896  18.225  0.00  0.00    +0.000 A 
ATOM     32  C   UNL     1      -8.994 -10.697  17.714  0.00  0.00    +0.000 A 
ATOM     33  N   UNL     1      -9.071  -9.521  18.471  0.00  0.00    +0.000 N 
ATOM     34  N   UNL     1      -9.269 -10.644  16.400  0.00  0.00    +0.000 N 
ATOM     35  C   UNL     1      -9.122 -11.667  15.554  0.00  0.00    +0.000 A 
ATOM     36  H   UNL     1      -7.974 -13.940  17.785  0.00  0.00    +0.000 HD
ATOM     37  H   UNL     1      -8.219 -11.984  19.271  0.00  0.00    +0.000 HD
ATOM     38  H   UNL     1      -9.346  -9.663  19.444  0.00  0.00    +0.000 HD
ATOM     39  H   UNL     1      -9.630  -9.741  16.068  0.00  0.00    +0.000 HD
ATOM     40  H   UNL     1      -9.372 -11.473  14.516  0.00  0.00    +0.000 HD
BRANCH  29  41
ATOM     41  C   UNL     1      -8.515 -14.053  15.082  0.00  0.00    +0.000 C 
ATOM     42  H   UNL     1      -9.049 -13.880  14.142  0.00  0.00    +0.000 HD
ATOM     43  H   UNL     1      -8.917 -14.965  15.536  0.00  0.00    +0.000 HD
ATOM     44  H   UNL     1      -7.459 -14.209  14.840  0.00  0.00    +0.000 HD
ENDBRANCH  29  41
ENDBRANCH   1  33
BRANCH   7  45
ATOM     45  N   UNL     1      -8.215  -7.034  19.536  0.00  0.00    +0.000 N 
ATOM     46  H   UNL     1      -8.607  -6.616  20.375  0.00  0.00    +0.000 HD
ATOM     47  H   UNL     1      -7.322  -6.598  19.318  0.00  0.00    +0.000 HD
ENDBRANCH   7  45
TORSDOF 5
ENDMDL
MODEL 8
REMARK VINA RESULT:    -9.655      4.332      8.867
REMARK INTER + INTRA:         -12.170
REMARK INTER:                 -11.651
REMARK INTRA:                  -0.518
REMARK UNBOUND:                -0.539
REMARK  Name = 
REMARK  5 active torsions:
REMARK  status: ('A' for Active; 'I' for Inactive)
REMARK    1  A    between atoms: C_1  and  C_2
REMARK    2  A    between atoms: N_6  and  C_7
REMARK    3  A    between atoms: N_12  and  C_13
REMARK    4  A    between atoms: C_20  and  C_21
REMARK    5  A    between atoms: C_24  and  N_25
REMARK                            x       y       z     vdW  Elec       q    Type
REMARK                         _______ _______ _______ _____ _____    ______ ____
ROOT
ATOM      1  C   UNL     1     -11.269  -4.214  17.085  0.00  0.00    +0.000 A 
ATOM      2  N   UNL     1     -10.367  -4.006  18.097  0.00  0.00    +0.000 NA
ATOM      3  C   UNL     1      -9.481  -4.998  18.298  0.00  0.00    +0.000 A 
ATOM      4  N   UNL     1      -9.356  -6.091  17.546  0.00  0.00    +0.000 NA
ATOM      5  C   UNL     1     -10.196  -6.262  16.522  0.00  0.00    +0.000 A 
ATOM      6  N   UNL     1      -9.978  -7.339  15.643  0.00  0.00    +0.000 N 
ATOM      7  C   UNL     1     -11.199  -5.311  16.214  0.00  0.00    +0.000 A 
ATOM      8  H   UNL     1      -8.813  -4.922  19.133  0.00  0.00    +0.000 HD
ATOM      9  H   UNL     1     -10.890  -7.629  15.285  0.00  0.00    +0.000 HD
ENDROOT
BRANCH   6  10
ATOM     10  C   UNL     1      -9.221  -8.561  15.778  0.00  0.00    +0.000 A 
ATOM     11  C   UNL     1      -8.805  -9.066  14.511  0.00  0.00    +0.000 A 
ATOM     12  C   UNL     1      -8.437 -10.387  14.338  0.00  0.00    +0.000 A 
ATOM     13  C   UNL     1      -8.691 -11.252  15.378  0.00  0.00    +0.000 A 
ATOM     14  C   UNL     1      -9.097 -10.750  16.609  0.00  0.00    +0.000 A 
ATOM     15  C   UNL     1      -9.473 -11.675  17.559  0.00  0.00    +0.000 A 
ATOM     16  C   UNL     1      -8.772 -11.556  18.720  0.00  0.00    +0.000 A 
ATOM     17  C   UNL     1      -8.522 -10.263  19.128  0.00  0.00    +0.000 A 
ATOM     18  N   UNL     1      -8.839  -9.173  18.326  0.00  0.00    +0.000 NA
ATOM     19  C   UNL     1      -9.079  -9.402  16.956  0.00  0.00    +0.000 A 
ATOM     20  H   UNL     1      -8.795  -8.413  13.640  0.00  0.00    +0.000 HD
ATOM     21  H   UNL     1      -8.059 -10.764  13.393  0.00  0.00    +0.000 HD
ATOM     22  H   UNL     1      -8.532 -12.322  15.256  0.00  0.00    +0.000 HD
ATOM     23  H   UNL     1     -10.552 -11.507  17.811  0.00  0.00    +0.000 HD
ATOM     24  H   UNL     1      -8.461 -12.437  19.265  0.00  0.00    +0.000 HD
BRANCH  17  25
ATOM     25  C   UNL     1      -7.753 -10.160  20.423  0.00  0.00    +0.000 C 
ATOM     26  H   UNL     1      -7.762 -11.080  21.003  0.00  0.00    +0.000 HD
ATOM     27  H   UNL     1      -8.147  -9.330  21.025  0.00  0.00    +0.000 HD
ATOM     28  H   UNL     1      -6.702  -9.911  20.209  0.00  0.00    +0.000 HD
ENDBRANCH  17  25
ENDBRANCH   6  10
BRANCH   1  33
ATOM     29  C   UNL     1     -11.515   0.024  14.285  0.00  0.00    +0.000 A 
ATOM     30  C   UNL     1     -12.692   0.009  15.036  0.00  0.00    +0.000 A 
ATOM     31  C   UNL     1     -12.947  -1.041  15.924  0.00  0.00    +0.000 A 
ATOM     32  C   UNL     1     -12.005  -2.058  16.080  0.00  0.00    +0.000 A 
ATOM     33  N   UNL     1     -12.233  -3.194  16.866  0.00  0.00    +0.000 N 
ATOM     34  N   UNL     1     -10.896  -2.002  15.323  0.00  0.00    +0.000 N 
ATOM     35  C   UNL     1     -10.623  -1.029  14.450  0.00  0.00    +0.000 A 
ATOM     36  H   UNL     1     -13.425   0.810  14.928  0.00  0.00    +0.000 HD
ATOM     37  H   UNL     1     -13.881  -1.056  16.479  0.00  0.00    +0.000 HD
ATOM     38  H   UNL     1     -12.744  -3.012  17.732  0.00  0.00    +0.000 HD
ATOM     39  H   UNL     1     -10.231  -2.772  15.470  0.00  0.00    +0.000 HD
ATOM     40  H   UNL     1      -9.693  -1.124  13.899  0.00  0.00    +0.000 HD
BRANCH  29  41
ATOM     41  C   UNL     1     -11.206   1.131  13.321  0.00  0.00    +0.000 C 
ATOM     42  H   UNL     1     -10.226   1.577  13.521  0.00  0.00    +0.000 HD
ATOM     43  H   UNL     1     -11.959   1.922  13.395  0.00  0.00    +0.000 HD
ATOM     44  H   UNL     1     -11.192   0.745  12.296  0.00  0.00    +0.000 HD
ENDBRANCH  29  41
ENDBRANCH   1  33
BRANCH   7  45
ATOM     45  N   UNL     1     -12.224  -5.534  15.260  0.00  0.00    +0.000 N 
ATOM     46  H   UNL     1     -12.977  -4.852  15.295  0.00  0.00    +0.000 HD
ATOM     47  H   UNL     1     -12.609  -6.475  15.284  0.00  0.00    +0.000 HD
ENDBRANCH   7  45
TORSDOF 5
ENDMDL
MODEL 9
REMARK VINA RESULT:    -9.606      3.001      4.229
REMARK INTER + INTRA:         -12.111
REMARK INTER:                 -11.547
REMARK INTRA:                  -0.564
REMARK UNBOUND:                -0.539
REMARK  Name = 
REMARK  5 active torsions:
REMARK  status: ('A' for Active; 'I' for Inactive)
REMARK    1  A    between atoms: C_1  and  C_2
REMARK    2  A    between atoms: N_6  and  C_7
REMARK    3  A    between atoms: N_12  and  C_13
REMARK    4  A    between atoms: C_20  and  C_21
REMARK    5  A    between atoms: C_24  and  N_25
REMARK                            x       y       z     vdW  Elec       q    Type
REMARK                         _______ _______ _______ _____ _____    ______ ____
ROOT
ATOM      1  C   UNL     1      -8.970  -7.551  18.990  0.00  0.00    +0.000 A 
ATOM      2  N   UNL     1      -7.802  -6.832  18.996  0.00  0.00    +0.000 NA
ATOM      3  C   UNL     1      -7.931  -5.515  18.752  0.00  0.00    +0.000 A 
ATOM      4  N   UNL     1      -9.083  -4.862  18.606  0.00  0.00    +0.000 NA
ATOM      5  C   UNL     1     -10.223  -5.555  18.662  0.00  0.00    +0.000 A 
ATOM      6  N   UNL     1     -11.442  -4.852  18.651  0.00  0.00    +0.000 N 
ATOM      7  C   UNL     1     -10.234  -6.954  18.883  0.00  0.00    +0.000 A 
ATOM      8  H   UNL     1      -7.040  -4.926  18.659  0.00  0.00    +0.000 HD
ATOM      9  H   UNL     1     -12.135  -5.453  18.202  0.00  0.00    +0.000 HD
ENDROOT
BRANCH   6  10
ATOM     10  C   UNL     1     -11.783  -3.511  18.238  0.00  0.00    +0.000 A 
ATOM     11  C   UNL     1     -12.238  -3.476  16.888  0.00  0.00    +0.000 A 
ATOM     12  C   UNL     1     -12.234  -2.309  16.147  0.00  0.00    +0.000 A 
ATOM     13  C   UNL     1     -11.576  -1.226  16.684  0.00  0.00    +0.000 A 
ATOM     14  C   UNL     1     -11.136  -1.270  18.002  0.00  0.00    +0.000 A 
ATOM     15  C   UNL     1     -10.359  -0.215  18.428  0.00  0.00    +0.000 A 
ATOM     16  C   UNL     1     -10.865   0.401  19.533  0.00  0.00    +0.000 A 
ATOM     17  C   UNL     1     -11.405  -0.440  20.481  0.00  0.00    +0.000 A 
ATOM     18  N   UNL     1     -11.551  -1.803  20.248  0.00  0.00    +0.000 NA
ATOM     19  C   UNL     1     -11.483  -2.261  18.916  0.00  0.00    +0.000 A 
ATOM     20  H   UNL     1     -12.578  -4.389  16.402  0.00  0.00    +0.000 HD
ATOM     21  H   UNL     1     -12.638  -2.260  15.140  0.00  0.00    +0.000 HD
ATOM     22  H   UNL     1     -11.438  -0.319  16.098  0.00  0.00    +0.000 HD
ATOM     23  H   UNL     1      -9.348  -0.608  18.709  0.00  0.00    +0.000 HD
ATOM     24  H   UNL     1     -10.816   1.477  19.631  0.00  0.00    +0.000 HD
BRANCH  17  25
ATOM     25  C   UNL     1     -11.949   0.267  21.700  0.00  0.00    +0.000 C 
ATOM     26  H   UNL     1     -12.701   1.016  21.462  0.00  0.00    +0.000 HD
ATOM     27  H   UNL     1     -11.125   0.725  22.263  0.00  0.00    +0.000 HD
ATOM     28  H   UNL     1     -12.412  -0.468  22.377  0.00  0.00    +0.000 HD
ENDBRANCH  17  25
ENDBRANCH   6  10
BRANCH   1  33
ATOM     29  C   UNL     1      -8.767 -11.720  16.083  0.00  0.00    +0.000 A 
ATOM     30  C   UNL     1      -8.804 -12.188  17.399  0.00  0.00    +0.000 A 
ATOM     31  C   UNL     1      -8.860 -11.285  18.466  0.00  0.00    +0.000 A 
ATOM     32  C   UNL     1      -8.912  -9.916  18.209  0.00  0.00    +0.000 A 
ATOM     33  N   UNL     1      -8.862  -8.949  19.221  0.00  0.00    +0.000 N 
ATOM     34  N   UNL     1      -8.860  -9.518  16.927  0.00  0.00    +0.000 N 
ATOM     35  C   UNL     1      -8.786 -10.345  15.880  0.00  0.00    +0.000 A 
ATOM     36  H   UNL     1      -8.778 -13.259  17.603  0.00  0.00    +0.000 HD
ATOM     37  H   UNL     1      -8.856 -11.663  19.485  0.00  0.00    +0.000 HD
ATOM     38  H   UNL     1      -9.377  -9.198  20.067  0.00  0.00    +0.000 HD
ATOM     39  H   UNL     1      -8.899  -8.501  16.785  0.00  0.00    +0.000 HD
ATOM     40  H   UNL     1      -8.738  -9.879  14.901  0.00  0.00    +0.000 HD
BRANCH  29  41
ATOM     41  C   UNL     1      -8.705 -12.655  14.912  0.00  0.00    +0.000 C 
ATOM     42  H   UNL     1      -9.456 -13.447  14.989  0.00  0.00    +0.000 HD
ATOM     43  H   UNL     1      -7.719 -13.129  14.855  0.00  0.00    +0.000 HD
ATOM     44  H   UNL     1      -8.893 -12.108  13.983  0.00  0.00    +0.000 HD
ENDBRANCH  29  41
ENDBRANCH   1  33
BRANCH   7  45
ATOM     45  N   UNL     1     -11.397  -7.757  18.768  0.00  0.00    +0.000 N 
ATOM     46  H   UNL     1     -12.220  -7.357  19.209  0.00  0.00    +0.000 HD
ATOM     47  H   UNL     1     -11.267  -8.714  19.084  0.00  0.00    +0.000 HD
ENDBRANCH   7  45
TORSDOF 5
ENDMDL
