MODEL 1
REMARK VINA RESULT:    -9.796      0.000      0.000
REMARK INTER + INTRA:         -12.629
REMARK INTER:                 -12.373
REMARK INTRA:                  -0.256
REMARK UNBOUND:                -0.256
REMARK  Name = 
REMARK  6 active torsions:
REMARK  status: ('A' for Active; 'I' for Inactive)
REMARK    1  A    between atoms: C_1  and  S_2
REMARK    2  A    between atoms: S_2  and  C_3
REMARK    3  A    between atoms: C_10  and  O_11
REMARK    4  A    between atoms: C_12  and  C_13
REMARK    5  A    between atoms: C_16  and  C_17
REMARK    6  A    between atoms: C_20  and  C_21
REMARK                            x       y       z     vdW  Elec       q    Type
REMARK                         _______ _______ _______ _____ _____    ______ ____
ROOT
ATOM      1  C   UNL     1     -11.040  -1.954  18.610  0.00  0.00    +0.000 A 
ATOM      2  N   UNL     1     -10.228  -2.199  19.641  0.00  0.00    +0.000 NA
ATOM      3  N   UNL     1      -9.861  -3.461  19.392  0.00  0.00    +0.000 N 
ATOM      4  C   UNL     1     -10.464  -3.960  18.267  0.00  0.00    +0.000 A 
ATOM      5  N   UNL     1     -10.295  -5.259  17.829  0.00  0.00    +0.000 N 
ATOM      6  C   UNL     1     -10.860  -5.672  16.632  0.00  0.00    +0.000 C 
ATOM      7  O   UNL     1     -11.488  -5.081  15.769  0.00  0.00    +0.000 OA
ATOM      8  C   UNL     1     -10.558  -7.116  16.491  0.00  0.00    +0.000 C 
ATOM      9  C   UNL     1      -9.887  -7.523  17.580  0.00  0.00    +0.000 C 
ATOM     10  C   UNL     1      -9.688  -6.374  18.536  0.00  0.00    +0.000 C 
ATOM     11  N   UNL     1     -11.190  -2.999  17.741  0.00  0.00    +0.000 NA
ATOM     12  H   UNL     1      -9.194  -3.903  20.010  0.00  0.00    +0.000 HD
ATOM     13  H   UNL     1     -10.296  -6.539  19.434  0.00  0.00    +0.000 HD
ENDROOT
BRANCH  10  14
ATOM     14  C   UNL     1      -8.237  -6.126  18.919  0.00  0.00    +0.000 A 
ATOM     15  C   UNL     1      -7.194  -6.279  17.988  0.00  0.00    +0.000 A 
ATOM     16  C   UNL     1      -5.868  -6.058  18.365  0.00  0.00    +0.000 A 
ATOM     17  C   UNL     1      -5.570  -5.679  19.671  0.00  0.00    +0.000 A 
ATOM     18 CL   UNL     1      -3.935  -5.412  20.133  0.00  0.00    +0.000 Cl
ATOM     19  C   UNL     1      -6.588  -5.519  20.607  0.00  0.00    +0.000 A 
ATOM     20  C   UNL     1      -7.915  -5.744  20.234  0.00  0.00    +0.000 A 
ATOM     21  H   UNL     1      -7.404  -6.584  16.963  0.00  0.00    +0.000 HD
ATOM     22  H   UNL     1      -5.073  -6.188  17.635  0.00  0.00    +0.000 HD
ATOM     23  H   UNL     1      -6.352  -5.230  21.628  0.00  0.00    +0.000 HD
ATOM     24  H   UNL     1      -8.693  -5.629  20.988  0.00  0.00    +0.000 HD
ENDBRANCH  10  14
BRANCH   9  25
ATOM     25  C   UNL     1      -9.438  -8.898  17.867  0.00  0.00    +0.000 A 
ATOM     26  C   UNL     1      -9.510  -9.899  16.889  0.00  0.00    +0.000 A 
ATOM     27  C   UNL     1      -9.092 -11.207  17.153  0.00  0.00    +0.000 A 
ATOM     28  C   UNL     1      -8.575 -11.547  18.403  0.00  0.00    +0.000 A 
ATOM     29  C   UNL     1      -8.474 -10.553  19.381  0.00  0.00    +0.000 A 
ATOM     30  C   UNL     1      -8.901  -9.246  19.115  0.00  0.00    +0.000 A 
ATOM     31  H   UNL     1      -9.897  -9.682  15.896  0.00  0.00    +0.000 HD
ATOM     32  H   UNL     1      -9.183 -11.957  16.369  0.00  0.00    +0.000 HD
ATOM     33  H   UNL     1      -8.070 -10.794  20.362  0.00  0.00    +0.000 HD
ATOM     34  H   UNL     1      -8.817  -8.521  19.919  0.00  0.00    +0.000 HD
BRANCH  28  35
ATOM     35  C   UNL     1      -8.150 -12.951  18.706  0.00  0.00    +0.000 C 
ATOM     36  H   UNL     1      -8.148 -13.572  17.804  0.00  0.00    +0.000 HD
ATOM     37  H   UNL     1      -8.841 -13.405  19.425  0.00  0.00    +0.000 HD
ATOM     38  H   UNL     1      -7.138 -12.959  19.122  0.00  0.00    +0.000 HD
ENDBRANCH  28  35
ENDBRANCH   9  25
BRANCH   8  39
ATOM     39  O   UNL     1     -10.965  -7.839  15.407  0.00  0.00    +0.000 OA
ATOM     40  H   UNL     1     -10.393  -7.540  14.668  0.00  0.00    +0.000 HD
ENDBRANCH   8  39
BRANCH   1  41
ATOM     41  S   UNL     1     -11.847  -0.419  18.472  0.00  0.00    +0.000 S 
BRANCH  41  42
ATOM     42  C   UNL     1     -11.488   0.309  20.080  0.00  0.00    +0.000 C 
ATOM     43  H   UNL     1     -11.774   1.365  20.059  0.00  0.00    +0.000 HD
ATOM     44  H   UNL     1     -10.421   0.250  20.311  0.00  0.00    +0.000 HD
ATOM     45  H   UNL     1     -12.063  -0.186  20.866  0.00  0.00    +0.000 HD
ENDBRANCH  41  42
ENDBRANCH   1  41
TORSDOF 6
ENDMDL
MODEL 2
REMARK VINA RESULT:    -9.110      1.836      2.199
REMARK INTER + INTRA:         -11.762
REMARK INTER:                 -11.411
REMARK INTRA:                  -0.351
REMARK UNBOUND:                -0.256
REMARK  Name = 
REMARK  6 active torsions:
REMARK  status: ('A' for Active; 'I' for Inactive)
REMARK    1  A    between atoms: C_1  and  S_2
REMARK    2  A    between atoms: S_2  and  C_3
REMARK    3  A    between atoms: C_10  and  O_11
REMARK    4  A    between atoms: C_12  and  C_13
REMARK    5  A    between atoms: C_16  and  C_17
REMARK    6  A    between atoms: C_20  and  C_21
REMARK                            x       y       z     vdW  Elec       q    Type
REMARK                         _______ _______ _______ _____ _____    ______ ____
ROOT
ATOM      1  C   UNL     1     -10.626  -2.299  15.881  0.00  0.00    +0.000 A 
ATOM      2  N   UNL     1     -10.456  -2.406  17.201  0.00  0.00    +0.000 NA
ATOM      3  N   UNL     1     -10.045  -3.674  17.311  0.00  0.00    +0.000 N 
ATOM      4  C   UNL     1     -10.006  -4.309  16.097  0.00  0.00    +0.000 A 
ATOM      5  N   UNL     1      -9.670  -5.641  15.949  0.00  0.00    +0.000 N 
ATOM      6  C   UNL     1      -9.560  -6.197  14.683  0.00  0.00    +0.000 C 
ATOM      7  O   UNL     1      -9.649  -5.723  13.563  0.00  0.00    +0.000 OA
ATOM      8  C   UNL     1      -9.263  -7.637  14.872  0.00  0.00    +0.000 C 
ATOM      9  C   UNL     1      -9.248  -7.903  16.187  0.00  0.00    +0.000 C 
ATOM     10  C   UNL     1      -9.532  -6.654  16.982  0.00  0.00    +0.000 C 
ATOM     11  N   UNL     1     -10.341  -3.435  15.175  0.00  0.00    +0.000 NA
ATOM     12  H   UNL     1      -9.794  -4.026  18.225  0.00  0.00    +0.000 HD
ATOM     13  H   UNL     1     -10.517  -6.743  17.460  0.00  0.00    +0.000 HD
ENDROOT
BRANCH  10  14
ATOM     14  C   UNL     1      -8.471  -6.318  18.017  0.00  0.00    +0.000 A 
ATOM     15  C   UNL     1      -8.810  -6.030  19.351  0.00  0.00    +0.000 A 
ATOM     16  C   UNL     1      -7.819  -5.711  20.283  0.00  0.00    +0.000 A 
ATOM     17  C   UNL     1      -6.483  -5.680  19.893  0.00  0.00    +0.000 A 
ATOM     18 CL   UNL     1      -5.266  -5.283  21.042  0.00  0.00    +0.000 Cl
ATOM     19  C   UNL     1      -6.126  -5.965  18.578  0.00  0.00    +0.000 A 
ATOM     20  C   UNL     1      -7.115  -6.280  17.644  0.00  0.00    +0.000 A 
ATOM     21  H   UNL     1      -9.850  -6.039  19.674  0.00  0.00    +0.000 HD
ATOM     22  H   UNL     1      -8.099  -5.484  21.308  0.00  0.00    +0.000 HD
ATOM     23  H   UNL     1      -5.082  -5.933  18.275  0.00  0.00    +0.000 HD
ATOM     24  H   UNL     1      -6.813  -6.483  16.617  0.00  0.00    +0.000 HD
ENDBRANCH  10  14
BRANCH   9  25
ATOM     25  C   UNL     1      -9.041  -9.225  16.810  0.00  0.00    +0.000 A 
ATOM     26  C   UNL     1      -9.004 -10.390  16.031  0.00  0.00    +0.000 A 
ATOM     27  C   UNL     1      -8.813 -11.648  16.612  0.00  0.00    +0.000 A 
ATOM     28  C   UNL     1      -8.639 -11.772  17.990  0.00  0.00    +0.000 A 
ATOM     29  C   UNL     1      -8.649 -10.617  18.776  0.00  0.00    +0.000 A 
ATOM     30  C   UNL     1      -8.848  -9.359  18.192  0.00  0.00    +0.000 A 
ATOM     31  H   UNL     1      -9.125 -10.344  14.952  0.00  0.00    +0.000 HD
ATOM     32  H   UNL     1      -8.810 -12.528  15.972  0.00  0.00    +0.000 HD
ATOM     33  H   UNL     1      -8.511 -10.689  19.853  0.00  0.00    +0.000 HD
ATOM     34  H   UNL     1      -8.865  -8.499  18.854  0.00  0.00    +0.000 HD
BRANCH  28  35
ATOM     35  C   UNL     1      -8.462 -13.117  18.627  0.00  0.00    +0.000 C 
ATOM     36  H   UNL     1      -7.527 -13.591  18.307  0.00  0.00    +0.000 HD
ATOM     37  H   UNL     1      -9.288 -13.779  18.343  0.00  0.00    +0.000 HD
ATOM     38  H   UNL     1      -8.435 -13.020  19.716  0.00  0.00    +0.000 HD
ENDBRANCH  28  35
ENDBRANCH   9  25
BRANCH   8  39
ATOM     39  O   UNL     1      -9.082  -8.484  13.817  0.00  0.00    +0.000 OA
ATOM     40  H   UNL     1      -8.780  -9.329  14.214  0.00  0.00    +0.000 HD
ENDBRANCH   8  39
BRANCH   1  41
ATOM     41  S   UNL     1     -11.214  -0.816  15.189  0.00  0.00    +0.000 S 
BRANCH  41  42
ATOM     42  C   UNL     1     -12.988  -0.985  15.458  0.00  0.00    +0.000 C 
ATOM     43  H   UNL     1     -13.503  -0.191  14.908  0.00  0.00    +0.000 HD
ATOM     44  H   UNL     1     -13.238  -0.883  16.517  0.00  0.00    +0.000 HD
ATOM     45  H   UNL     1     -13.345  -1.948  15.085  0.00  0.00    +0.000 HD
ENDBRANCH  41  42
ENDBRANCH   1  41
TORSDOF 6
ENDMDL
MODEL 3
REMARK VINA RESULT:    -8.361      5.595      7.579
REMARK INTER + INTRA:         -10.817
REMARK INTER:                  -9.480
REMARK INTRA:                  -1.336
REMARK UNBOUND:                -0.256
REMARK  Name = 
REMARK  6 active torsions:
REMARK  status: ('A' for Active; 'I' for Inactive)
REMARK    1  A    between atoms: C_1  and  S_2
REMARK    2  A    between atoms: S_2  and  C_3
REMARK    3  A    between atoms: C_10  and  O_11
REMARK    4  A    between atoms: C_12  and  C_13
REMARK    5  A    between atoms: C_16  and  C_17
REMARK    6  A    between atoms: C_20  and  C_21
REMARK                            x       y       z     vdW  Elec       q    Type
REMARK                         _______ _______ _______ _____ _____    ______ ____
ROOT
ATOM      1  C   UNL     1     -10.529   2.680  23.937  0.00  0.00    +0.000 A 
ATOM      2  N   UNL     1     -10.453   2.825  22.612  0.00  0.00    +0.000 NA
ATOM      3  N   UNL     1      -9.939   1.645  22.247  0.00  0.00    +0.000 N 
ATOM      4  C   UNL     1      -9.686   0.839  23.326  0.00  0.00    +0.000 A 
ATOM      5  N   UNL     1      -9.101  -0.408  23.220  0.00  0.00    +0.000 N 
ATOM      6  C   UNL     1      -8.958  -1.211  24.342  0.00  0.00    +0.000 C 
ATOM      7  O   UNL     1      -9.311  -1.078  25.502  0.00  0.00    +0.000 OA
ATOM      8  C   UNL     1      -8.239  -2.431  23.907  0.00  0.00    +0.000 C 
ATOM      9  C   UNL     1      -7.944  -2.314  22.603  0.00  0.00    +0.000 C 
ATOM     10  C   UNL     1      -8.448  -0.999  22.064  0.00  0.00    +0.000 C 
ATOM     11  N   UNL     1     -10.088   1.473  24.405  0.00  0.00    +0.000 NA
ATOM     12  H   UNL     1      -9.809   1.456  21.263  0.00  0.00    +0.000 HD
ATOM     13  H   UNL     1      -7.594  -0.352  21.827  0.00  0.00    +0.000 HD
ENDROOT
BRANCH  10  14
ATOM     14  C   UNL     1      -9.363  -1.130  20.857  0.00  0.00    +0.000 A 
ATOM     15  C   UNL     1     -10.598  -1.797  20.939  0.00  0.00    +0.000 A 
ATOM     16  C   UNL     1     -11.417  -1.916  19.814  0.00  0.00    +0.000 A 
ATOM     17  C   UNL     1     -11.014  -1.367  18.600  0.00  0.00    +0.000 A 
ATOM     18 CL   UNL     1     -12.024  -1.519  17.215  0.00  0.00    +0.000 Cl
ATOM     19  C   UNL     1      -9.797  -0.699  18.498  0.00  0.00    +0.000 A 
ATOM     20  C   UNL     1      -8.974  -0.583  19.621  0.00  0.00    +0.000 A 
ATOM     21  H   UNL     1     -10.928  -2.243  21.877  0.00  0.00    +0.000 HD
ATOM     22  H   UNL     1     -12.366  -2.442  19.892  0.00  0.00    +0.000 HD
ATOM     23  H   UNL     1      -9.482  -0.278  17.547  0.00  0.00    +0.000 HD
ATOM     24  H   UNL     1      -8.019  -0.071  19.513  0.00  0.00    +0.000 HD
ENDBRANCH  10  14
BRANCH   9  25
ATOM     25  C   UNL     1      -7.189  -3.283  21.787  0.00  0.00    +0.000 A 
ATOM     26  C   UNL     1      -5.787  -3.285  21.784  0.00  0.00    +0.000 A 
ATOM     27  C   UNL     1      -5.061  -4.195  21.010  0.00  0.00    +0.000 A 
ATOM     28  C   UNL     1      -5.720  -5.142  20.227  0.00  0.00    +0.000 A 
ATOM     29  C   UNL     1      -7.118  -5.169  20.238  0.00  0.00    +0.000 A 
ATOM     30  C   UNL     1      -7.841  -4.250  21.008  0.00  0.00    +0.000 A 
ATOM     31  H   UNL     1      -5.227  -2.573  22.386  0.00  0.00    +0.000 HD
ATOM     32  H   UNL     1      -3.973  -4.149  21.024  0.00  0.00    +0.000 HD
ATOM     33  H   UNL     1      -7.654  -5.901  19.637  0.00  0.00    +0.000 HD
ATOM     34  H   UNL     1      -8.925  -4.305  20.963  0.00  0.00    +0.000 HD
BRANCH  28  35
ATOM     35  C   UNL     1      -4.954  -6.105  19.372  0.00  0.00    +0.000 C 
ATOM     36  H   UNL     1      -3.893  -5.836  19.318  0.00  0.00    +0.000 HD
ATOM     37  H   UNL     1      -5.353  -6.100  18.351  0.00  0.00    +0.000 HD
ATOM     38  H   UNL     1      -5.025  -7.116  19.783  0.00  0.00    +0.000 HD
ENDBRANCH  28  35
ENDBRANCH   9  25
BRANCH   8  39
ATOM     39  O   UNL     1      -7.942  -3.444  24.772  0.00  0.00    +0.000 OA
ATOM     40  H   UNL     1      -8.749  -4.001  24.804  0.00  0.00    +0.000 HD
ENDBRANCH   8  39
BRANCH   1  41
ATOM     41  S   UNL     1     -11.106   3.985  24.932  0.00  0.00    +0.000 S 
BRANCH  41  42
ATOM     42  C   UNL     1     -10.425   3.528  26.536  0.00  0.00    +0.000 C 
ATOM     43  H   UNL     1      -9.725   4.306  26.855  0.00  0.00    +0.000 HD
ATOM     44  H   UNL     1      -9.879   2.582  26.478  0.00  0.00    +0.000 HD
ATOM     45  H   UNL     1     -11.217   3.451  27.284  0.00  0.00    +0.000 HD
ENDBRANCH  41  42
ENDBRANCH   1  41
TORSDOF 6
ENDMDL
MODEL 4
REMARK VINA RESULT:    -8.265      4.346      7.789
REMARK INTER + INTRA:         -10.695
REMARK INTER:                  -9.399
REMARK INTRA:                  -1.296
REMARK UNBOUND:                -0.256
REMARK  Name = 
REMARK  6 active torsions:
REMARK  status: ('A' for Active; 'I' for Inactive)
REMARK    1  A    between atoms: C_1  and  S_2
REMARK    2  A    between atoms: S_2  and  C_3
REMARK    3  A    between atoms: C_10  and  O_11
REMARK    4  A    between atoms: C_12  and  C_13
REMARK    5  A    between atoms: C_16  and  C_17
REMARK    6  A    between atoms: C_20  and  C_21
REMARK                            x       y       z     vdW  Elec       q    Type
REMARK                         _______ _______ _______ _____ _____    ______ ____
ROOT
ATOM      1  C   UNL     1      -9.354  -6.774  16.917  0.00  0.00    +0.000 A 
ATOM      2  N   UNL     1     -10.480  -6.060  16.991  0.00  0.00    +0.000 NA
ATOM      3  N   UNL     1     -10.183  -5.203  17.974  0.00  0.00    +0.000 N 
ATOM      4  C   UNL     1      -8.933  -5.425  18.491  0.00  0.00    +0.000 A 
ATOM      5  N   UNL     1      -8.414  -4.711  19.553  0.00  0.00    +0.000 N 
ATOM      6  C   UNL     1      -7.107  -4.923  19.966  0.00  0.00    +0.000 C 
ATOM      7  O   UNL     1      -6.208  -5.624  19.532  0.00  0.00    +0.000 OA
ATOM      8  C   UNL     1      -6.889  -4.066  21.156  0.00  0.00    +0.000 C 
ATOM      9  C   UNL     1      -8.033  -3.425  21.438  0.00  0.00    +0.000 C 
ATOM     10  C   UNL     1      -9.108  -3.805  20.452  0.00  0.00    +0.000 C 
ATOM     11  N   UNL     1      -8.382  -6.400  17.803  0.00  0.00    +0.000 NA
ATOM     12  H   UNL     1     -10.861  -4.495  18.222  0.00  0.00    +0.000 HD
ATOM     13  H   UNL     1      -9.875  -4.403  20.962  0.00  0.00    +0.000 HD
ENDROOT
BRANCH  10  14
ATOM     14  C   UNL     1      -9.748  -2.623  19.740  0.00  0.00    +0.000 A 
ATOM     15  C   UNL     1      -9.092  -1.952  18.693  0.00  0.00    +0.000 A 
ATOM     16  C   UNL     1      -9.693  -0.861  18.062  0.00  0.00    +0.000 A 
ATOM     17  C   UNL     1     -10.954  -0.432  18.466  0.00  0.00    +0.000 A 
ATOM     18 CL   UNL     1     -11.690   0.914  17.690  0.00  0.00    +0.000 Cl
ATOM     19  C   UNL     1     -11.623  -1.085  19.499  0.00  0.00    +0.000 A 
ATOM     20  C   UNL     1     -11.022  -2.174  20.135  0.00  0.00    +0.000 A 
ATOM     21  H   UNL     1      -8.100  -2.265  18.368  0.00  0.00    +0.000 HD
ATOM     22  H   UNL     1      -9.169  -0.348  17.259  0.00  0.00    +0.000 HD
ATOM     23  H   UNL     1     -12.605  -0.744  19.817  0.00  0.00    +0.000 HD
ATOM     24  H   UNL     1     -11.556  -2.658  20.951  0.00  0.00    +0.000 HD
ENDBRANCH  10  14
BRANCH   9  25
ATOM     25  C   UNL     1      -8.266  -2.512  22.573  0.00  0.00    +0.000 A 
ATOM     26  C   UNL     1      -7.766  -1.202  22.559  0.00  0.00    +0.000 A 
ATOM     27  C   UNL     1      -7.977  -0.331  23.632  0.00  0.00    +0.000 A 
ATOM     28  C   UNL     1      -8.709  -0.742  24.745  0.00  0.00    +0.000 A 
ATOM     29  C   UNL     1      -9.236  -2.037  24.763  0.00  0.00    +0.000 A 
ATOM     30  C   UNL     1      -9.015  -2.910  23.690  0.00  0.00    +0.000 A 
ATOM     31  H   UNL     1      -7.197  -0.831  21.710  0.00  0.00    +0.000 HD
ATOM     32  H   UNL     1      -7.555   0.672  23.587  0.00  0.00    +0.000 HD
ATOM     33  H   UNL     1      -9.814  -2.379  25.619  0.00  0.00    +0.000 HD
ATOM     34  H   UNL     1      -9.431  -3.910  23.767  0.00  0.00    +0.000 HD
BRANCH  28  35
ATOM     35  C   UNL     1      -8.919   0.173  25.913  0.00  0.00    +0.000 C 
ATOM     36  H   UNL     1      -9.668  -0.226  26.605  0.00  0.00    +0.000 HD
ATOM     37  H   UNL     1      -9.271   1.151  25.565  0.00  0.00    +0.000 HD
ATOM     38  H   UNL     1      -7.983   0.302  26.466  0.00  0.00    +0.000 HD
ENDBRANCH  28  35
ENDBRANCH   9  25
BRANCH   8  39
ATOM     39  O   UNL     1      -5.692  -4.026  21.810  0.00  0.00    +0.000 OA
ATOM     40  H   UNL     1      -5.766  -3.277  22.438  0.00  0.00    +0.000 HD
ENDBRANCH   8  39
BRANCH   1  41
ATOM     41  S   UNL     1      -9.223  -8.095  15.793  0.00  0.00    +0.000 S 
BRANCH  41  42
ATOM     42  C   UNL     1     -10.719  -9.024  16.170  0.00  0.00    +0.000 C 
ATOM     43  H   UNL     1     -10.486 -10.093  16.134  0.00  0.00    +0.000 HD
ATOM     44  H   UNL     1     -11.505  -8.822  15.438  0.00  0.00    +0.000 HD
ATOM     45  H   UNL     1     -11.078  -8.786  17.174  0.00  0.00    +0.000 HD
ENDBRANCH  41  42
ENDBRANCH   1  41
TORSDOF 6
ENDMDL
MODEL 5
REMARK VINA RESULT:    -8.044      3.928      7.783
REMARK INTER + INTRA:         -10.416
REMARK INTER:                  -9.214
REMARK INTRA:                  -1.202
REMARK UNBOUND:                -0.256
REMARK  Name = 
REMARK  6 active torsions:
REMARK  status: ('A' for Active; 'I' for Inactive)
REMARK    1  A    between atoms: C_1  and  S_2
REMARK    2  A    between atoms: S_2  and  C_3
REMARK    3  A    between atoms: C_10  and  O_11
REMARK    4  A    between atoms: C_12  and  C_13
REMARK    5  A    between atoms: C_16  and  C_17
REMARK    6  A    between atoms: C_20  and  C_21
REMARK                            x       y       z     vdW  Elec       q    Type
REMARK                         _______ _______ _______ _____ _____    ______ ____
ROOT
ATOM      1  C   UNL     1      -9.499  -9.955  17.241  0.00  0.00    +0.000 A 
ATOM      2  N   UNL     1     -10.490  -9.539  16.449  0.00  0.00    +0.000 NA
ATOM      3  N   UNL     1     -10.476  -8.222  16.681  0.00  0.00    +0.000 N 
ATOM      4  C   UNL     1      -9.529  -7.872  17.608  0.00  0.00    +0.000 A 
ATOM      5  N   UNL     1      -9.354  -6.579  18.063  0.00  0.00    +0.000 N 
ATOM      6  C   UNL     1      -8.316  -6.279  18.933  0.00  0.00    +0.000 C 
ATOM      7  O   UNL     1      -7.404  -6.947  19.391  0.00  0.00    +0.000 OA
ATOM      8  C   UNL     1      -8.450  -4.845  19.280  0.00  0.00    +0.000 C 
ATOM      9  C   UNL     1      -9.541  -4.355  18.671  0.00  0.00    +0.000 C 
ATOM     10  C   UNL     1     -10.223  -5.432  17.865  0.00  0.00    +0.000 C 
ATOM     11  N   UNL     1      -8.878  -8.962  17.947  0.00  0.00    +0.000 NA
ATOM     12  H   UNL     1     -11.115  -7.631  16.166  0.00  0.00    +0.000 HD
ATOM     13  H   UNL     1     -11.182  -5.685  18.334  0.00  0.00    +0.000 HD
ENDROOT
BRANCH  10  14
ATOM     14  C   UNL     1     -10.429  -5.078  16.400  0.00  0.00    +0.000 A 
ATOM     15  C   UNL     1      -9.378  -5.160  15.469  0.00  0.00    +0.000 A 
ATOM     16  C   UNL     1      -9.587  -4.818  14.132  0.00  0.00    +0.000 A 
ATOM     17  C   UNL     1     -10.844  -4.395  13.710  0.00  0.00    +0.000 A 
ATOM     18 CL   UNL     1     -11.096  -3.971  12.062  0.00  0.00    +0.000 Cl
ATOM     19  C   UNL     1     -11.899  -4.310  14.615  0.00  0.00    +0.000 A 
ATOM     20  C   UNL     1     -11.691  -4.647  15.954  0.00  0.00    +0.000 A 
ATOM     21  H   UNL     1      -8.384  -5.479  15.780  0.00  0.00    +0.000 HD
ATOM     22  H   UNL     1      -8.761  -4.879  13.426  0.00  0.00    +0.000 HD
ATOM     23  H   UNL     1     -12.878  -3.973  14.284  0.00  0.00    +0.000 HD
ATOM     24  H   UNL     1     -12.527  -4.557  16.647  0.00  0.00    +0.000 HD
ENDBRANCH  10  14
BRANCH   9  25
ATOM     25  C   UNL     1     -10.067  -2.982  18.790  0.00  0.00    +0.000 A 
ATOM     26  C   UNL     1      -9.735  -1.999  17.848  0.00  0.00    +0.000 A 
ATOM     27  C   UNL     1     -10.223  -0.693  17.954  0.00  0.00    +0.000 A 
ATOM     28  C   UNL     1     -11.073  -0.338  19.001  0.00  0.00    +0.000 A 
ATOM     29  C   UNL     1     -11.434  -1.314  19.935  0.00  0.00    +0.000 A 
ATOM     30  C   UNL     1     -10.936  -2.619  19.830  0.00  0.00    +0.000 A 
ATOM     31  H   UNL     1      -9.083  -2.229  17.008  0.00  0.00    +0.000 HD
ATOM     32  H   UNL     1      -9.925   0.043  17.210  0.00  0.00    +0.000 HD
ATOM     33  H   UNL     1     -12.099  -1.061  20.758  0.00  0.00    +0.000 HD
ATOM     34  H   UNL     1     -11.234  -3.330  20.594  0.00  0.00    +0.000 HD
BRANCH  28  35
ATOM     35  C   UNL     1     -11.581   1.064  19.141  0.00  0.00    +0.000 C 
ATOM     36  H   UNL     1     -12.676   1.096  19.130  0.00  0.00    +0.000 HD
ATOM     37  H   UNL     1     -11.219   1.679  18.309  0.00  0.00    +0.000 HD
ATOM     38  H   UNL     1     -11.241   1.498  20.086  0.00  0.00    +0.000 HD
ENDBRANCH  28  35
ENDBRANCH   9  25
BRANCH   8  39
ATOM     39  O   UNL     1      -7.574  -4.217  20.118  0.00  0.00    +0.000 OA
ATOM     40  H   UNL     1      -7.024  -3.649  19.537  0.00  0.00    +0.000 HD
ENDBRANCH   8  39
BRANCH   1  41
ATOM     41  S   UNL     1      -9.116 -11.648  17.354  0.00  0.00    +0.000 S 
BRANCH  41  42
ATOM     42  C   UNL     1      -8.531 -11.986  15.685  0.00  0.00    +0.000 C 
ATOM     43  H   UNL     1      -7.610 -11.420  15.514  0.00  0.00    +0.000 HD
ATOM     44  H   UNL     1      -9.266 -11.672  14.938  0.00  0.00    +0.000 HD
ATOM     45  H   UNL     1      -8.309 -13.048  15.561  0.00  0.00    +0.000 HD
ENDBRANCH  41  42
ENDBRANCH   1  41
TORSDOF 6
ENDMDL
MODEL 6
REMARK VINA RESULT:    -7.919      3.634      7.239
REMARK INTER + INTRA:         -10.258
REMARK INTER:                  -8.901
REMARK INTRA:                  -1.357
REMARK UNBOUND:                -0.256
REMARK  Name = 
REMARK  6 active torsions:
REMARK  status: ('A' for Active; 'I' for Inactive)
REMARK    1  A    between atoms: C_1  and  S_2
REMARK    2  A    between atoms: S_2  and  C_3
REMARK    3  A    between atoms: C_10  and  O_11
REMARK    4  A    between atoms: C_12  and  C_13
REMARK    5  A    between atoms: C_16  and  C_17
REMARK    6  A    between atoms: C_20  and  C_21
REMARK                            x       y       z     vdW  Elec       q    Type
REMARK                         _______ _______ _______ _____ _____    ______ ____
ROOT
ATOM      1  C   UNL     1      -8.845  -8.015  19.741  0.00  0.00    +0.000 A 
ATOM      2  N   UNL     1      -8.372  -6.927  20.353  0.00  0.00    +0.000 NA
ATOM      3  N   UNL     1      -8.889  -5.953  19.596  0.00  0.00    +0.000 N 
ATOM      4  C   UNL     1      -9.618  -6.449  18.547  0.00  0.00    +0.000 A 
ATOM      5  N   UNL     1     -10.206  -5.649  17.586  0.00  0.00    +0.000 N 
ATOM      6  C   UNL     1     -11.008  -6.211  16.604  0.00  0.00    +0.000 C 
ATOM      7  O   UNL     1     -11.392  -7.352  16.404  0.00  0.00    +0.000 OA
ATOM      8  C   UNL     1     -11.418  -5.108  15.703  0.00  0.00    +0.000 C 
ATOM      9  C   UNL     1     -10.842  -3.972  16.125  0.00  0.00    +0.000 C 
ATOM     10  C   UNL     1      -9.999  -4.231  17.348  0.00  0.00    +0.000 C 
ATOM     11  N   UNL     1      -9.625  -7.760  18.647  0.00  0.00    +0.000 NA
ATOM     12  H   UNL     1      -8.723  -4.992  19.861  0.00  0.00    +0.000 HD
ATOM     13  H   UNL     1      -8.938  -4.112  17.091  0.00  0.00    +0.000 HD
ENDROOT
BRANCH  10  14
ATOM     14  C   UNL     1     -10.352  -3.361  18.545  0.00  0.00    +0.000 A 
ATOM     15  C   UNL     1     -11.660  -3.313  19.058  0.00  0.00    +0.000 A 
ATOM     16  C   UNL     1     -11.965  -2.498  20.150  0.00  0.00    +0.000 A 
ATOM     17  C   UNL     1     -10.968  -1.727  20.741  0.00  0.00    +0.000 A 
ATOM     18 CL   UNL     1     -11.348  -0.720  22.084  0.00  0.00    +0.000 Cl
ATOM     19  C   UNL     1      -9.666  -1.762  20.251  0.00  0.00    +0.000 A 
ATOM     20  C   UNL     1      -9.360  -2.573  19.155  0.00  0.00    +0.000 A 
ATOM     21  H   UNL     1     -12.457  -3.901  18.604  0.00  0.00    +0.000 HD
ATOM     22  H   UNL     1     -12.983  -2.466  20.530  0.00  0.00    +0.000 HD
ATOM     23  H   UNL     1      -8.891  -1.154  20.710  0.00  0.00    +0.000 HD
ATOM     24  H   UNL     1      -8.338  -2.572  18.779  0.00  0.00    +0.000 HD
ENDBRANCH  10  14
BRANCH   9  25
ATOM     25  C   UNL     1     -10.945  -2.648  15.483  0.00  0.00    +0.000 A 
ATOM     26  C   UNL     1      -9.914  -2.159  14.669  0.00  0.00    +0.000 A 
ATOM     27  C   UNL     1     -10.000  -0.903  14.060  0.00  0.00    +0.000 A 
ATOM     28  C   UNL     1     -11.130  -0.106  14.238  0.00  0.00    +0.000 A 
ATOM     29  C   UNL     1     -12.177  -0.590  15.028  0.00  0.00    +0.000 A 
ATOM     30  C   UNL     1     -12.084  -1.845  15.642  0.00  0.00    +0.000 A 
ATOM     31  H   UNL     1      -9.017  -2.747  14.492  0.00  0.00    +0.000 HD
ATOM     32  H   UNL     1      -9.168  -0.555  13.451  0.00  0.00    +0.000 HD
ATOM     33  H   UNL     1     -13.071   0.013  15.177  0.00  0.00    +0.000 HD
ATOM     34  H   UNL     1     -12.919  -2.161  16.260  0.00  0.00    +0.000 HD
BRANCH  28  35
ATOM     35  C   UNL     1     -11.222   1.253  13.614  0.00  0.00    +0.000 C 
ATOM     36  H   UNL     1     -11.743   1.217  12.651  0.00  0.00    +0.000 HD
ATOM     37  H   UNL     1     -10.217   1.653  13.436  0.00  0.00    +0.000 HD
ATOM     38  H   UNL     1     -11.772   1.935  14.269  0.00  0.00    +0.000 HD
ENDBRANCH  28  35
ENDBRANCH   9  25
BRANCH   8  39
ATOM     39  O   UNL     1     -12.228  -5.316  14.625  0.00  0.00    +0.000 OA
ATOM     40  H   UNL     1     -11.669  -5.129  13.841  0.00  0.00    +0.000 HD
ENDBRANCH   8  39
BRANCH   1  41
ATOM     41  S   UNL     1      -8.420  -9.601  20.314  0.00  0.00    +0.000 S 
BRANCH  41  42
ATOM     42  C   UNL     1      -8.517 -10.559  18.792  0.00  0.00    +0.000 C 
ATOM     43  H   UNL     1      -7.761 -10.187  18.094  0.00  0.00    +0.000 HD
ATOM     44  H   UNL     1      -9.497 -10.454  18.320  0.00  0.00    +0.000 HD
ATOM     45  H   UNL     1      -8.312 -11.615  18.987  0.00  0.00    +0.000 HD
ENDBRANCH  41  42
ENDBRANCH   1  41
TORSDOF 6
ENDMDL
MODEL 7
REMARK VINA RESULT:    -7.805      3.418      4.849
REMARK INTER + INTRA:         -10.114
REMARK INTER:                  -8.736
REMARK INTRA:                  -1.377
REMARK UNBOUND:                -0.256
REMARK  Name = 
REMARK  6 active torsions:
REMARK  status: ('A' for Active; 'I' for Inactive)
REMARK    1  A    between atoms: C_1  and  S_2
REMARK    2  A    between atoms: S_2  and  C_3
REMARK    3  A    between atoms: C_10  and  O_11
REMARK    4  A    between atoms: C_12  and  C_13
REMARK    5  A    between atoms: C_16  and  C_17
REMARK    6  A    between atoms: C_20  and  C_21
REMARK                            x       y       z     vdW  Elec       q    Type
REMARK                         _______ _______ _______ _____ _____    ______ ____
ROOT
ATOM      1  C   UNL     1     -13.356  -0.188  14.185  0.00  0.00    +0.000 A 
ATOM      2  N   UNL     1     -13.733  -0.319  15.459  0.00  0.00    +0.000 NA
ATOM      3  N   UNL     1     -12.990  -1.361  15.848  0.00  0.00    +0.000 N 
ATOM      4  C   UNL     1     -12.222  -1.854  14.826  0.00  0.00    +0.000 A 
ATOM      5  N   UNL     1     -11.410  -2.965  14.956  0.00  0.00    +0.000 N 
ATOM      6  C   UNL     1     -10.588  -3.356  13.909  0.00  0.00    +0.000 C 
ATOM      7  O   UNL     1     -10.356  -2.868  12.815  0.00  0.00    +0.000 OA
ATOM      8  C   UNL     1      -9.914  -4.604  14.337  0.00  0.00    +0.000 C 
ATOM      9  C   UNL     1     -10.362  -4.938  15.557  0.00  0.00    +0.000 C 
ATOM     10  C   UNL     1     -11.375  -3.931  16.041  0.00  0.00    +0.000 C 
ATOM     11  N   UNL     1     -12.420  -1.095  13.771  0.00  0.00    +0.000 NA
ATOM     12  H   UNL     1     -13.043  -1.662  16.811  0.00  0.00    +0.000 HD
ATOM     13  H   UNL     1     -12.368  -4.398  16.070  0.00  0.00    +0.000 HD
ENDROOT
BRANCH  10  14
ATOM     14  C   UNL     1     -11.043  -3.310  17.389  0.00  0.00    +0.000 A 
ATOM     15  C   UNL     1     -11.856  -3.523  18.516  0.00  0.00    +0.000 A 
ATOM     16  C   UNL     1     -11.539  -2.932  19.741  0.00  0.00    +0.000 A 
ATOM     17  C   UNL     1     -10.409  -2.129  19.854  0.00  0.00    +0.000 A 
ATOM     18 CL   UNL     1     -10.023  -1.400  21.364  0.00  0.00    +0.000 Cl
ATOM     19  C   UNL     1      -9.588  -1.908  18.751  0.00  0.00    +0.000 A 
ATOM     20  C   UNL     1      -9.906  -2.493  17.523  0.00  0.00    +0.000 A 
ATOM     21  H   UNL     1     -12.751  -4.140  18.447  0.00  0.00    +0.000 HD
ATOM     22  H   UNL     1     -12.183  -3.100  20.602  0.00  0.00    +0.000 HD
ATOM     23  H   UNL     1      -8.710  -1.274  18.840  0.00  0.00    +0.000 HD
ATOM     24  H   UNL     1      -9.259  -2.293  16.670  0.00  0.00    +0.000 HD
ENDBRANCH  10  14
BRANCH   9  25
ATOM     25  C   UNL     1      -9.987  -6.138  16.329  0.00  0.00    +0.000 A 
ATOM     26  C   UNL     1      -8.859  -6.136  17.160  0.00  0.00    +0.000 A 
ATOM     27  C   UNL     1      -8.491  -7.270  17.892  0.00  0.00    +0.000 A 
ATOM     28  C   UNL     1      -9.255  -8.435  17.823  0.00  0.00    +0.000 A 
ATOM     29  C   UNL     1     -10.397  -8.444  17.018  0.00  0.00    +0.000 A 
ATOM     30  C   UNL     1     -10.757  -7.309  16.280  0.00  0.00    +0.000 A 
ATOM     31  H   UNL     1      -8.237  -5.249  17.255  0.00  0.00    +0.000 HD
ATOM     32  H   UNL     1      -7.597  -7.230  18.511  0.00  0.00    +0.000 HD
ATOM     33  H   UNL     1     -11.011  -9.340  16.952  0.00  0.00    +0.000 HD
ATOM     34  H   UNL     1     -11.644  -7.379  15.657  0.00  0.00    +0.000 HD
BRANCH  28  35
ATOM     35  C   UNL     1      -8.856  -9.664  18.581  0.00  0.00    +0.000 C 
ATOM     36  H   UNL     1      -9.728 -10.169  19.012  0.00  0.00    +0.000 HD
ATOM     37  H   UNL     1      -8.183  -9.397  19.403  0.00  0.00    +0.000 HD
ATOM     38  H   UNL     1      -8.352 -10.373  17.916  0.00  0.00    +0.000 HD
ENDBRANCH  28  35
ENDBRANCH   9  25
BRANCH   8  39
ATOM     39  O   UNL     1      -9.019  -5.255  13.538  0.00  0.00    +0.000 OA
ATOM     40  H   UNL     1      -9.203  -6.210  13.670  0.00  0.00    +0.000 HD
ENDBRANCH   8  39
BRANCH   1  41
ATOM     41  S   UNL     1     -14.077   1.031  13.176  0.00  0.00    +0.000 S 
BRANCH  41  42
ATOM     42  C   UNL     1     -14.377   0.099  11.664  0.00  0.00    +0.000 C 
ATOM     43  H   UNL     1     -15.443   0.152  11.424  0.00  0.00    +0.000 HD
ATOM     44  H   UNL     1     -14.107  -0.953  11.788  0.00  0.00    +0.000 HD
ATOM     45  H   UNL     1     -13.817   0.528  10.829  0.00  0.00    +0.000 HD
ENDBRANCH  41  42
ENDBRANCH   1  41
TORSDOF 6
ENDMDL
MODEL 8
REMARK VINA RESULT:    -7.683      3.767      8.076
REMARK INTER + INTRA:          -9.960
REMARK INTER:                  -8.656
REMARK INTRA:                  -1.304
REMARK UNBOUND:                -0.256
REMARK  Name = 
REMARK  6 active torsions:
REMARK  status: ('A' for Active; 'I' for Inactive)
REMARK    1  A    between atoms: C_1  and  S_2
REMARK    2  A    between atoms: S_2  and  C_3
REMARK    3  A    between atoms: C_10  and  O_11
REMARK    4  A    between atoms: C_12  and  C_13
REMARK    5  A    between atoms: C_16  and  C_17
REMARK    6  A    between atoms: C_20  and  C_21
REMARK                            x       y       z     vdW  Elec       q    Type
REMARK                         _______ _______ _______ _____ _____    ______ ____
ROOT
ATOM      1  C   UNL     1      -9.689  -7.588  16.640  0.00  0.00    +0.000 A 
ATOM      2  N   UNL     1     -10.788  -6.994  16.168  0.00  0.00    +0.000 NA
ATOM      3  N   UNL     1     -10.782  -5.846  16.855  0.00  0.00    +0.000 N 
ATOM      4  C   UNL     1      -9.731  -5.777  17.732  0.00  0.00    +0.000 A 
ATOM      5  N   UNL     1      -9.535  -4.718  18.598  0.00  0.00    +0.000 N 
ATOM      6  C   UNL     1      -8.400  -4.668  19.393  0.00  0.00    +0.000 C 
ATOM      7  O   UNL     1      -7.416  -5.384  19.473  0.00  0.00    +0.000 OA
ATOM      8  C   UNL     1      -8.528  -3.462  20.246  0.00  0.00    +0.000 C 
ATOM      9  C   UNL     1      -9.704  -2.873  19.982  0.00  0.00    +0.000 C 
ATOM     10  C   UNL     1     -10.455  -3.643  18.926  0.00  0.00    +0.000 C 
ATOM     11  N   UNL     1      -9.009  -6.864  17.580  0.00  0.00    +0.000 NA
ATOM     12  H   UNL     1     -11.501  -5.162  16.664  0.00  0.00    +0.000 HD
ATOM     13  H   UNL     1     -11.336  -4.117  19.379  0.00  0.00    +0.000 HD
ENDROOT
BRANCH  10  14
ATOM     14  C   UNL     1     -10.864  -2.812  17.720  0.00  0.00    +0.000 A 
ATOM     15  C   UNL     1      -9.933  -2.025  17.020  0.00  0.00    +0.000 A 
ATOM     16  C   UNL     1     -10.334  -1.259  15.922  0.00  0.00    +0.000 A 
ATOM     17  C   UNL     1     -11.664  -1.274  15.512  0.00  0.00    +0.000 A 
ATOM     18 CL   UNL     1     -12.155  -0.327  14.163  0.00  0.00    +0.000 Cl
ATOM     19  C   UNL     1     -12.601  -2.049  16.190  0.00  0.00    +0.000 A 
ATOM     20  C   UNL     1     -12.204  -2.812  17.291  0.00  0.00    +0.000 A 
ATOM     21  H   UNL     1      -8.889  -1.990  17.330  0.00  0.00    +0.000 HD
ATOM     22  H   UNL     1      -9.603  -0.649  15.396  0.00  0.00    +0.000 HD
ATOM     23  H   UNL     1     -13.641  -2.054  15.872  0.00  0.00    +0.000 HD
ATOM     24  H   UNL     1     -12.958  -3.398  17.815  0.00  0.00    +0.000 HD
ENDBRANCH  10  14
BRANCH   9  25
ATOM     25  C   UNL     1     -10.249  -1.673  20.646  0.00  0.00    +0.000 A 
ATOM     26  C   UNL     1     -11.235  -1.783  21.636  0.00  0.00    +0.000 A 
ATOM     27  C   UNL     1     -11.763  -0.652  22.267  0.00  0.00    +0.000 A 
ATOM     28  C   UNL     1     -11.306   0.622  21.934  0.00  0.00    +0.000 A 
ATOM     29  C   UNL     1     -10.305   0.746  20.966  0.00  0.00    +0.000 A 
ATOM     30  C   UNL     1      -9.785  -0.388  20.330  0.00  0.00    +0.000 A 
ATOM     31  H   UNL     1     -11.617  -2.756  21.937  0.00  0.00    +0.000 HD
ATOM     32  H   UNL     1     -12.540  -0.783  23.018  0.00  0.00    +0.000 HD
ATOM     33  H   UNL     1      -9.930   1.731  20.693  0.00  0.00    +0.000 HD
ATOM     34  H   UNL     1      -9.024  -0.230  19.572  0.00  0.00    +0.000 HD
BRANCH  28  35
ATOM     35  C   UNL     1     -11.883   1.843  22.584  0.00  0.00    +0.000 C 
ATOM     36  H   UNL     1     -11.895   2.695  21.895  0.00  0.00    +0.000 HD
ATOM     37  H   UNL     1     -11.281   2.124  23.455  0.00  0.00    +0.000 HD
ATOM     38  H   UNL     1     -12.912   1.652  22.902  0.00  0.00    +0.000 HD
ENDBRANCH  28  35
ENDBRANCH   9  25
BRANCH   8  39
ATOM     39  O   UNL     1      -7.566  -3.107  21.147  0.00  0.00    +0.000 OA
ATOM     40  H   UNL     1      -7.087  -3.938  21.353  0.00  0.00    +0.000 HD
ENDBRANCH   8  39
BRANCH   1  41
ATOM     41  S   UNL     1      -9.246  -9.178  16.092  0.00  0.00    +0.000 S 
BRANCH  41  42
ATOM     42  C   UNL     1      -9.113 -10.061  17.657  0.00  0.00    +0.000 C 
ATOM     43  H   UNL     1     -10.044 -10.609  17.831  0.00  0.00    +0.000 HD
ATOM     44  H   UNL     1      -8.964  -9.368  18.490  0.00  0.00    +0.000 HD
ATOM     45  H   UNL     1      -8.292 -10.781  17.625  0.00  0.00    +0.000 HD
ENDBRANCH  41  42
ENDBRANCH   1  41
TORSDOF 6
ENDMDL
MODEL 9
REMARK VINA RESULT:    -7.656      7.830      9.609
REMARK INTER + INTRA:          -9.926
REMARK INTER:                  -8.639
REMARK INTRA:                  -1.288
REMARK UNBOUND:                -0.256
REMARK  Name = 
REMARK  6 active torsions:
REMARK  status: ('A' for Active; 'I' for Inactive)
REMARK    1  A    between atoms: C_1  and  S_2
REMARK    2  A    between atoms: S_2  and  C_3
REMARK    3  A    between atoms: C_10  and  O_11
REMARK    4  A    between atoms: C_12  and  C_13
REMARK    5  A    between atoms: C_16  and  C_17
REMARK    6  A    between atoms: C_20  and  C_21
REMARK                            x       y       z     vdW  Elec       q    Type
REMARK                         _______ _______ _______ _____ _____    ______ ____
ROOT
ATOM      1  C   UNL     1     -13.440   2.303  17.812  0.00  0.00    +0.000 A 
ATOM      2  N   UNL     1     -14.056   2.818  18.879  0.00  0.00    +0.000 NA
ATOM      3  N   UNL     1     -13.283   2.365  19.872  0.00  0.00    +0.000 N 
ATOM      4  C   UNL     1     -12.262   1.576  19.411  0.00  0.00    +0.000 A 
ATOM      5  N   UNL     1     -11.360   0.940  20.242  0.00  0.00    +0.000 N 
ATOM      6  C   UNL     1     -10.294   0.233  19.706  0.00  0.00    +0.000 C 
ATOM      7  O   UNL     1      -9.903   0.071  18.562  0.00  0.00    +0.000 OA
ATOM      8  C   UNL     1      -9.570  -0.379  20.846  0.00  0.00    +0.000 C 
ATOM      9  C   UNL     1     -10.218  -0.073  21.980  0.00  0.00    +0.000 C 
ATOM     10  C   UNL     1     -11.430   0.774  21.684  0.00  0.00    +0.000 C 
ATOM     11  N   UNL     1     -12.330   1.557  18.098  0.00  0.00    +0.000 NA
ATOM     12  H   UNL     1     -13.498   2.644  20.820  0.00  0.00    +0.000 HD
ATOM     13  H   UNL     1     -12.338   0.192  21.885  0.00  0.00    +0.000 HD
ENDROOT
BRANCH  10  14
ATOM     14  C   UNL     1     -11.470   2.092  22.441  0.00  0.00    +0.000 A 
ATOM     15  C   UNL     1     -12.531   2.412  23.306  0.00  0.00    +0.000 A 
ATOM     16  C   UNL     1     -12.554   3.634  23.981  0.00  0.00    +0.000 A 
ATOM     17  C   UNL     1     -11.518   4.546  23.803  0.00  0.00    +0.000 A 
ATOM     18 CL   UNL     1     -11.550   6.052  24.633  0.00  0.00    +0.000 Cl
ATOM     19  C   UNL     1     -10.455   4.248  22.954  0.00  0.00    +0.000 A 
ATOM     20  C   UNL     1     -10.433   3.028  22.274  0.00  0.00    +0.000 A 
ATOM     21  H   UNL     1     -13.358   1.717  23.452  0.00  0.00    +0.000 HD
ATOM     22  H   UNL     1     -13.386   3.869  24.640  0.00  0.00    +0.000 HD
ATOM     23  H   UNL     1      -9.651   4.965  22.811  0.00  0.00    +0.000 HD
ATOM     24  H   UNL     1      -9.600   2.824  21.602  0.00  0.00    +0.000 HD
ENDBRANCH  10  14
BRANCH   9  25
ATOM     25  C   UNL     1      -9.862  -0.523  23.339  0.00  0.00    +0.000 A 
ATOM     26  C   UNL     1      -9.091   0.283  24.188  0.00  0.00    +0.000 A 
ATOM     27  C   UNL     1      -8.744  -0.137  25.475  0.00  0.00    +0.000 A 
ATOM     28  C   UNL     1      -9.174  -1.373  25.956  0.00  0.00    +0.000 A 
ATOM     29  C   UNL     1      -9.964  -2.178  25.131  0.00  0.00    +0.000 A 
ATOM     30  C   UNL     1     -10.303  -1.758  23.839  0.00  0.00    +0.000 A 
ATOM     31  H   UNL     1      -8.740   1.260  23.862  0.00  0.00    +0.000 HD
ATOM     32  H   UNL     1      -8.128   0.514  26.094  0.00  0.00    +0.000 HD
ATOM     33  H   UNL     1     -10.314  -3.145  25.487  0.00  0.00    +0.000 HD
ATOM     34  H   UNL     1     -10.903  -2.432  23.236  0.00  0.00    +0.000 HD
BRANCH  28  35
ATOM     35  C   UNL     1      -8.785  -1.846  27.324  0.00  0.00    +0.000 C 
ATOM     36  H   UNL     1      -8.149  -1.115  27.835  0.00  0.00    +0.000 HD
ATOM     37  H   UNL     1      -8.226  -2.786  27.252  0.00  0.00    +0.000 HD
ATOM     38  H   UNL     1      -9.678  -2.002  27.939  0.00  0.00    +0.000 HD
ENDBRANCH  28  35
ENDBRANCH   9  25
BRANCH   8  39
ATOM     39  O   UNL     1      -8.452  -1.142  20.668  0.00  0.00    +0.000 OA
ATOM     40  H   UNL     1      -8.027  -1.186  21.551  0.00  0.00    +0.000 HD
ENDBRANCH   8  39
BRANCH   1  41
ATOM     41  S   UNL     1     -14.083   2.559  16.216  0.00  0.00    +0.000 S 
BRANCH  41  42
ATOM     42  C   UNL     1     -15.323   1.256  16.126  0.00  0.00    +0.000 C 
ATOM     43  H   UNL     1     -14.933   0.365  16.628  0.00  0.00    +0.000 HD
ATOM     44  H   UNL     1     -15.545   0.992  15.088  0.00  0.00    +0.000 HD
ATOM     45  H   UNL     1     -16.241   1.560  16.634  0.00  0.00    +0.000 HD
ENDBRANCH  41  42
ENDBRANCH   1  41
TORSDOF 6
ENDMDL
