
 OpenBabel01112423163D

 52 55  0  0  1  0  0  0  0  0999 V2000
    7.7534    0.7969   -1.2461 C   0  0  0  0  0  0  0  0  0  0  0  0
    6.4489    0.2301   -0.7045 C   0  0  0  0  0  0  0  0  0  0  0  0
    6.5468   -0.0582    0.7915 C   0  0  0  0  0  0  0  0  0  0  0  0
    5.0026   -0.8223    1.3797 S   0  0  0  0  0  0  0  0  0  0  0  0
    5.4286   -1.0202    3.0615 C   0  0  0  0  0  0  0  0  0  0  0  0
    5.7805    0.0072    3.7512 N   0  0  0  0  0  0  0  0  0  0  0  0
    6.0826   -0.1904    5.0827 C   0  0  0  0  0  0  0  0  0  0  0  0
    6.2346    0.7404    5.8640 O   0  0  0  0  0  0  0  0  0  0  0  0
    6.2268   -1.5963    5.5683 C   0  0  0  0  0  0  0  0  0  0  0  0
    5.8164   -2.6107    4.7791 C   0  0  0  0  0  0  0  0  0  0  0  0
    5.3647   -2.2947    3.5306 N   0  0  0  0  0  0  0  0  0  0  0  0
    5.8741   -3.9068    5.2587 N   0  0  0  0  0  0  0  0  0  0  0  0
    6.1763   -4.2285    6.5776 C   0  0  0  0  0  0  0  0  0  0  0  0
    6.5575   -3.2564    7.4307 C   0  0  0  0  0  0  0  0  0  0  0  0
    6.7710   -3.5562    8.8739 C   0  0  0  0  0  0  0  0  0  0  0  0
    7.1087   -2.6760    9.6614 O   0  0  0  0  0  0  0  0  0  0  0  0
    6.4486   -4.9449    9.3653 C   0  0  0  0  0  0  0  0  0  0  0  0
    6.7718   -6.0233    8.3228 C   0  0  0  0  0  0  0  0  0  0  0  0
    8.2987   -6.1339    8.1211 C   0  0  0  0  0  0  0  0  0  0  0  0
    6.2646   -7.3763    8.8534 C   0  0  0  0  0  0  0  0  0  0  0  0
    6.0605   -5.6825    6.9894 C   0  0  0  0  0  0  0  0  0  0  0  0
    6.7541   -1.8174    6.9706 C   0  0  1  0  0  0  0  0  0  0  0  0
    8.2285   -1.4362    7.0845 C   0  0  0  0  0  0  0  0  0  0  0  0
    9.2273   -2.1074    6.3673 C   0  0  0  0  0  0  0  0  0  0  0  0
   10.5515   -1.7781    6.6060 C   0  0  0  0  0  0  0  0  0  0  0  0
   10.9466   -0.8372    7.4884 N   0  0  0  0  0  0  0  0  0  0  0  0
    9.9689   -0.1901    8.1591 C   0  0  0  0  0  0  0  0  0  0  0  0
    8.6189   -0.4421    7.9880 C   0  0  0  0  0  0  0  0  0  0  0  0
    7.6582    1.0069   -2.3163 H   0  0  0  0  0  0  0  0  0  0  0  0
    8.5754    0.0862   -1.1127 H   0  0  0  0  0  0  0  0  0  0  0  0
    8.0188    1.7300   -0.7393 H   0  0  0  0  0  0  0  0  0  0  0  0
    6.2118   -0.6871   -1.2573 H   0  0  0  0  0  0  0  0  0  0  0  0
    5.6443    0.9493   -0.8996 H   0  0  0  0  0  0  0  0  0  0  0  0
    6.7392    0.8692    1.3410 H   0  0  0  0  0  0  0  0  0  0  0  0
    7.3709   -0.7521    0.9897 H   0  0  0  0  0  0  0  0  0  0  0  0
    5.1278   -3.0363    2.8888 H   0  0  0  0  0  0  0  0  0  0  0  0
    5.4455   -4.6295    4.6901 H   0  0  0  0  0  0  0  0  0  0  0  0
    5.3815   -4.9517    9.6204 H   0  0  0  0  0  0  0  0  0  0  0  0
    7.0141   -5.1240   10.2877 H   0  0  0  0  0  0  0  0  0  0  0  0
    8.8103   -6.3429    9.0733 H   0  0  0  0  0  0  0  0  0  0  0  0
    8.7344   -5.2179    7.7097 H   0  0  0  0  0  0  0  0  0  0  0  0
    8.5452   -6.9515    7.4341 H   0  0  0  0  0  0  0  0  0  0  0  0
    6.7527   -7.6325    9.8020 H   0  0  0  0  0  0  0  0  0  0  0  0
    6.4654   -8.1848    8.1439 H   0  0  0  0  0  0  0  0  0  0  0  0
    5.1847   -7.3498    9.0381 H   0  0  0  0  0  0  0  0  0  0  0  0
    4.9926   -5.9266    7.0593 H   0  0  0  0  0  0  0  0  0  0  0  0
    6.4744   -6.3172    6.1937 H   0  0  0  0  0  0  0  0  0  0  0  0
    6.1551   -1.1860    7.6421 H   0  0  0  0  0  0  0  0  0  0  0  0
    8.9882   -2.8916    5.6562 H   0  0  0  0  0  0  0  0  0  0  0  0
   11.3565   -2.2890    6.0866 H   0  0  0  0  0  0  0  0  0  0  0  0
   10.3067    0.5528    8.8756 H   0  0  0  0  0  0  0  0  0  0  0  0
    7.8866    0.1036    8.5757 H   0  0  0  0  0  0  0  0  0  0  0  0
  1  2  1  0  0  0  0
  1 29  1  0  0  0  0
  1 30  1  0  0  0  0
  1 31  1  0  0  0  0
  2  3  1  0  0  0  0
  2 32  1  0  0  0  0
  2 33  1  0  0  0  0
  3  4  1  0  0  0  0
  3 34  1  0  0  0  0
  3 35  1  0  0  0  0
  4  5  1  0  0  0  0
  5  6  2  0  0  0  0
  5 11  1  0  0  0  0
  6  7  1  0  0  0  0
  7  8  2  0  0  0  0
  7  9  1  0  0  0  0
  9 10  2  0  0  0  0
  9 22  1  0  0  0  0
 10 11  1  0  0  0  0
 10 12  1  0  0  0  0
 11 36  1  0  0  0  0
 12 13  1  0  0  0  0
 12 37  1  0  0  0  0
 13 14  2  0  0  0  0
 13 21  1  0  0  0  0
 14 15  1  0  0  0  0
 14 22  1  0  0  0  0
 15 16  2  0  0  0  0
 15 17  1  0  0  0  0
 17 18  1  0  0  0  0
 17 38  1  0  0  0  0
 17 39  1  0  0  0  0
 18 19  1  0  0  0  0
 18 20  1  0  0  0  0
 18 21  1  0  0  0  0
 19 40  1  0  0  0  0
 19 41  1  0  0  0  0
 19 42  1  0  0  0  0
 20 43  1  0  0  0  0
 20 44  1  0  0  0  0
 20 45  1  0  0  0  0
 21 46  1  0  0  0  0
 21 47  1  0  0  0  0
 22 23  1  0  0  0  0
 22 48  1  1  0  0  0
 23 24  1  0  0  0  0
 23 28  2  0  0  0  0
 24 25  2  0  0  0  0
 24 49  1  0  0  0  0
 25 26  1  0  0  0  0
 25 50  1  0  0  0  0
 26 27  2  0  0  0  0
 27 28  1  0  0  0  0
 27 51  1  0  0  0  0
 28 52  1  0  0  0  0
M  END
$$$$
