REMARK  Name = ligand.pdb
REMARK  8 active torsions:
REMARK  status: ('A' for Active; 'I' for Inactive)
REMARK    1  A    between atoms: C1_1  and  C2_4
REMARK    2  A    between atoms: N1_2  and  N2_5
REMARK    3  A    between atoms: C2_4  and  C3_7
REMARK    4  A    between atoms: N2_5  and  C4_9
REMARK    5  A    between atoms: O2_6  and  C9_14
REMARK    6  A    between atoms: O2_6  and  C10_15
REMARK    7  A    between atoms: O3_8  and  C14_19
REMARK    8  A    between atoms: C4_9  and  C5_10
REMARK                            x       y       z     vdW  Elec       q    Type
REMARK                         _______ _______ _______ _____ _____    ______ ____
ROOT
ATOM      1  N1  1SB A2001      -8.817  -8.250  18.813  0.00  0.00    +0.000 N 
ATOM      2  O1  1SB A2001      -8.664  -8.040  20.992  0.00  0.00    +0.000 OA
ATOM      3  C3  1SB A2001      -8.661  -7.485  19.901  0.00  0.00    +0.000 C 
ATOM      4  H   1SB A2001      -8.955  -7.776  17.961  0.00  0.00    +0.000 HD
ENDROOT
BRANCH   3   5
ATOM      5  C2  1SB A2001      -8.503  -5.955  19.825  0.00  0.00    +0.000 C 
ATOM      6  H   1SB A2001      -9.195  -5.530  20.522  0.00  0.00    +0.000 HD
ATOM      7  H   1SB A2001      -8.674  -5.722  18.795  0.00  0.00    +0.000 HD
BRANCH   5   8
ATOM      8  C1  1SB A2001      -7.195  -5.383  20.112  0.00  0.00    +0.000 A 
ATOM      9  C6  1SB A2001      -6.103  -5.926  19.479  0.00  0.00    +0.000 A 
ATOM     10  C7  1SB A2001      -4.826  -5.493  19.666  0.00  0.00    +0.000 A 
ATOM     11  C8  1SB A2001      -4.643  -4.486  20.551  0.00  0.00    +0.000 A 
ATOM     12  C9  1SB A2001      -5.735  -3.922  21.152  0.00  0.00    +0.000 A 
ATOM     13  C11 1SB A2001      -7.048  -4.326  20.992  0.00  0.00    +0.000 A 
ATOM     14  H   1SB A2001      -6.260  -6.708  18.824  0.00  0.00    +0.000 HD
ATOM     15  H   1SB A2001      -4.034  -5.914  19.156  0.00  0.00    +0.000 HD
ATOM     16  H   1SB A2001      -3.693  -4.148  20.770  0.00  0.00    +0.000 HD
ATOM     17  H   1SB A2001      -7.841  -3.882  21.481  0.00  0.00    +0.000 HD
BRANCH  12  18
ATOM     18  O2  1SB A2001      -5.532  -2.884  21.978  0.00  0.00    +0.000 OA
BRANCH  18  19
ATOM     19  C10 1SB A2001      -6.645  -2.174  22.603  0.00  0.00    +0.000 C 
ATOM     20  H   1SB A2001      -6.265  -1.386  23.219  0.00  0.00    +0.000 HD
ATOM     21  H   1SB A2001      -7.210  -2.855  23.204  0.00  0.00    +0.000 HD
ATOM     22  H   1SB A2001      -7.275  -1.760  21.844  0.00  0.00    +0.000 HD
ENDBRANCH  18  19
ENDBRANCH  12  18
ENDBRANCH   5   8
ENDBRANCH   3   5
BRANCH   1  23
ATOM     23  N2  1SB A2001      -8.806  -9.651  18.750  0.00  0.00    +0.000 NA
ATOM     24  H   1SB A2001      -7.917  -9.982  19.124  0.00  0.00    +0.000 HD
BRANCH  23  25
ATOM     25  C4  1SB A2001      -8.945 -10.121  17.562  0.00  0.00    +0.000 C 
ATOM     26  H   1SB A2001      -9.882  -9.777  17.176  0.00  0.00    +0.000 HD
ATOM     27  H   1SB A2001      -8.103  -9.773  17.001  0.00  0.00    +0.000 HD
BRANCH  25  28
ATOM     28  C5  1SB A2001      -8.924 -11.627  17.470  0.00  0.00    +0.000 A 
ATOM     29  C12 1SB A2001      -8.960 -12.575  18.475  0.00  0.00    +0.000 A 
ATOM     30  C13 1SB A2001      -8.877 -13.957  18.141  0.00  0.00    +0.000 A 
ATOM     31  C14 1SB A2001      -8.807 -14.425  16.859  0.00  0.00    +0.000 A 
ATOM     32  C15 1SB A2001      -8.789 -13.464  15.854  0.00  0.00    +0.000 A 
ATOM     33  C16 1SB A2001      -8.845 -12.096  16.164  0.00  0.00    +0.000 A 
ATOM     34  H   1SB A2001      -9.046 -12.283  19.461  0.00  0.00    +0.000 HD
ATOM     35  H   1SB A2001      -8.869 -14.644  18.911  0.00  0.00    +0.000 HD
ATOM     36  H   1SB A2001      -8.734 -13.760  14.867  0.00  0.00    +0.000 HD
ATOM     37  H   1SB A2001      -8.827 -11.412  15.392  0.00  0.00    +0.000 HD
BRANCH  31  38
ATOM     38  O3  1SB A2001      -8.751 -15.748  16.537  0.00  0.00    +0.000 OA
ATOM     39  H   1SB A2001      -8.704 -16.010  15.639  0.00  0.00    +0.000 HD
ENDBRANCH  31  38
ENDBRANCH  25  28
ENDBRANCH  23  25
ENDBRANCH   1  23
TORSDOF 8
